MODEL 1
REMARK VINA RESULT:      -7.7      0.000      0.000
REMARK  Name = 
REMARK  3 active torsions:
REMARK  status: ('A' for Active; 'I' for Inactive)
REMARK    1  A    between atoms: C_5  and  C_6
REMARK    2  A    between atoms: C_6  and  C_8
REMARK    3  A    between atoms: C_14  and  N_15
REMARK                            x       y       z     vdW  Elec       q    Type
REMARK                         _______ _______ _______ _____ _____    ______ ____
ROOT
ATOM      1  C   UNL     1     -11.863  13.891  67.802  0.00  0.00    +0.048 A 
ATOM      2  C   UNL     1     -11.236  14.979  67.209  0.00  0.00    +0.082 A 
ATOM      3  C   UNL     1     -11.373  15.245  65.863  0.00  0.00    +0.332 A 
ATOM      4  C   UNL     1     -12.031  14.276  65.120  0.00  0.00    +0.303 A 
ATOM      5  O   UNL     1     -12.522  14.618  63.860  0.00  0.00    -0.277 OA
ATOM      6  C   UNL     1     -12.345  13.029  65.642  0.00  0.00    +0.241 A 
ATOM      7  O   UNL     1     -12.679  11.976  64.798  0.00  0.00    -0.283 OA
ATOM      8  C   UNL     1     -12.075  12.797  66.984  0.00  0.00    +0.049 A 
ENDROOT
BRANCH   3   9
ATOM      9  N   UNL     1     -10.561  16.204  65.178  0.00  0.00    +0.084 N 
ATOM     10  O   UNL     1     -11.216  17.237  64.546  0.00  0.00    -0.576 OA
ATOM     11  O   UNL     1      -9.446  16.463  65.695  0.00  0.00    +0.042 OA
ENDBRANCH   3   9
BRANCH   1  12
ATOM     12  C   UNL     1     -11.883  13.844  69.245  0.00  0.00    +0.196 C 
ATOM     13  O   UNL     1     -11.473  12.788  69.812  0.00  0.00    -0.287 OA
BRANCH  12  18
ATOM     14  C   UNL     1     -12.526  15.540  74.182  0.00  0.00    +0.031 C 
ATOM     15  C   UNL     1     -12.711  15.864  72.733  0.00  0.00    -0.022 A 
ATOM     16  C   UNL     1     -11.651  16.302  71.949  0.00  0.00    -0.004 A 
ATOM     17  C   UNL     1     -11.449  15.824  70.660  0.00  0.00    +0.003 A 
ATOM     18  C   UNL     1     -12.362  14.946  70.088  0.00  0.00    +0.039 A 
ATOM     19  C   UNL     1     -13.592  14.846  70.727  0.00  0.00    +0.003 A 
ATOM     20  C   UNL     1     -13.759  15.272  72.040  0.00  0.00    -0.004 A 
ENDBRANCH  12  18
ENDBRANCH   1  12
TORSDOF 3
ENDMDL
MODEL 2
REMARK VINA RESULT:      -7.7      1.406      2.010
REMARK  Name = 
REMARK  3 active torsions:
REMARK  status: ('A' for Active; 'I' for Inactive)
REMARK    1  A    between atoms: C_5  and  C_6
REMARK    2  A    between atoms: C_6  and  C_8
REMARK    3  A    between atoms: C_14  and  N_15
REMARK                            x       y       z     vdW  Elec       q    Type
REMARK                         _______ _______ _______ _____ _____    ______ ____
ROOT
ATOM      1  C   UNL     1     -11.616  13.697  66.884  0.00  0.00    +0.048 A 
ATOM      2  C   UNL     1     -10.611  14.655  66.901  0.00  0.00    +0.082 A 
ATOM      3  C   UNL     1     -10.497  15.600  65.903  0.00  0.00    +0.332 A 
ATOM      4  C   UNL     1     -11.338  15.429  64.812  0.00  0.00    +0.303 A 
ATOM      5  O   UNL     1     -11.544  16.507  63.952  0.00  0.00    -0.277 OA
ATOM      6  C   UNL     1     -12.090  14.277  64.631  0.00  0.00    +0.241 A 
ATOM      7  O   UNL     1     -12.640  13.984  63.389  0.00  0.00    -0.283 OA
ATOM      8  C   UNL     1     -12.066  13.318  65.634  0.00  0.00    +0.049 A 
ENDROOT
BRANCH   3   9
ATOM      9  N   UNL     1      -9.350  16.442  65.762  0.00  0.00    +0.084 N 
ATOM     10  O   UNL     1      -9.539  17.792  65.954  0.00  0.00    -0.576 OA
ATOM     11  O   UNL     1      -8.252  15.958  66.136  0.00  0.00    +0.042 OA
ENDBRANCH   3   9
BRANCH   1  12
ATOM     12  C   UNL     1     -11.817  12.929  68.090  0.00  0.00    +0.196 C 
ATOM     13  O   UNL     1     -12.018  11.683  67.976  0.00  0.00    -0.287 OA
BRANCH  12  18
ATOM     14  C   UNL     1     -14.758  15.168  71.832  0.00  0.00    +0.031 C 
ATOM     15  C   UNL     1     -13.384  14.715  71.450  0.00  0.00    -0.022 A 
ATOM     16  C   UNL     1     -13.018  13.377  71.521  0.00  0.00    -0.004 A 
ATOM     17  C   UNL     1     -12.279  12.767  70.514  0.00  0.00    +0.003 A 
ATOM     18  C   UNL     1     -11.815  13.513  69.437  0.00  0.00    +0.039 A 
ATOM     19  C   UNL     1     -11.848  14.894  69.593  0.00  0.00    +0.003 A 
ATOM     20  C   UNL     1     -12.642  15.490  70.567  0.00  0.00    -0.004 A 
ENDBRANCH  12  18
ENDBRANCH   1  12
TORSDOF 3
ENDMDL
MODEL 3
REMARK VINA RESULT:      -7.3      1.323      2.421
REMARK  Name = 
REMARK  3 active torsions:
REMARK  status: ('A' for Active; 'I' for Inactive)
REMARK    1  A    between atoms: C_5  and  C_6
REMARK    2  A    between atoms: C_6  and  C_8
REMARK    3  A    between atoms: C_14  and  N_15
REMARK                            x       y       z     vdW  Elec       q    Type
REMARK                         _______ _______ _______ _____ _____    ______ ____
ROOT
ATOM      1  C   UNL     1     -11.447  13.914  68.384  0.00  0.00    +0.048 A 
ATOM      2  C   UNL     1     -12.330  13.719  67.330  0.00  0.00    +0.082 A 
ATOM      3  C   UNL     1     -11.889  13.629  66.026  0.00  0.00    +0.332 A 
ATOM      4  C   UNL     1     -10.546  13.908  65.823  0.00  0.00    +0.303 A 
ATOM      5  O   UNL     1      -9.950  13.498  64.631  0.00  0.00    -0.277 OA
ATOM      6  C   UNL     1      -9.743  14.447  66.819  0.00  0.00    +0.241 A 
ATOM      7  O   UNL     1      -8.523  15.032  66.500  0.00  0.00    -0.283 OA
ATOM      8  C   UNL     1     -10.293  14.612  68.083  0.00  0.00    +0.049 A 
ENDROOT
BRANCH   3   9
ATOM      9  N   UNL     1     -12.777  13.668  64.906  0.00  0.00    +0.084 N 
ATOM     10  O   UNL     1     -12.653  14.738  64.049  0.00  0.00    -0.576 OA
ATOM     11  O   UNL     1     -13.087  12.561  64.398  0.00  0.00    +0.042 OA
ENDBRANCH   3   9
BRANCH   1  12
ATOM     12  C   UNL     1     -11.962  13.729  69.721  0.00  0.00    +0.196 C 
ATOM     13  O   UNL     1     -11.940  12.561  70.210  0.00  0.00    -0.287 OA
BRANCH  12  18
ATOM     14  C   UNL     1     -12.493  15.636  74.594  0.00  0.00    +0.031 C 
ATOM     15  C   UNL     1     -12.808  15.847  73.146  0.00  0.00    -0.022 A 
ATOM     16  C   UNL     1     -11.862  16.359  72.267  0.00  0.00    -0.004 A 
ATOM     17  C   UNL     1     -11.686  15.830  70.994  0.00  0.00    +0.003 A 
ATOM     18  C   UNL     1     -12.518  14.816  70.536  0.00  0.00    +0.039 A 
ATOM     19  C   UNL     1     -13.684  14.609  71.264  0.00  0.00    +0.003 A 
ATOM     20  C   UNL     1     -13.818  15.092  72.561  0.00  0.00    -0.004 A 
ENDBRANCH  12  18
ENDBRANCH   1  12
TORSDOF 3
ENDMDL
MODEL 4
REMARK VINA RESULT:      -7.1      4.028      5.493
REMARK  Name = 
REMARK  3 active torsions:
REMARK  status: ('A' for Active; 'I' for Inactive)
REMARK    1  A    between atoms: C_5  and  C_6
REMARK    2  A    between atoms: C_6  and  C_8
REMARK    3  A    between atoms: C_14  and  N_15
REMARK                            x       y       z     vdW  Elec       q    Type
REMARK                         _______ _______ _______ _____ _____    ______ ____
ROOT
ATOM      1  C   UNL     1     -11.579  12.834  69.283  0.00  0.00    +0.048 A 
ATOM      2  C   UNL     1     -12.203  13.660  70.208  0.00  0.00    +0.082 A 
ATOM      3  C   UNL     1     -12.205  15.032  70.065  0.00  0.00    +0.332 A 
ATOM      4  C   UNL     1     -11.410  15.532  69.043  0.00  0.00    +0.303 A 
ATOM      5  O   UNL     1     -11.629  16.839  68.605  0.00  0.00    -0.277 OA
ATOM      6  C   UNL     1     -10.512  14.737  68.347  0.00  0.00    +0.241 A 
ATOM      7  O   UNL     1      -9.501  15.315  67.588  0.00  0.00    -0.283 OA
ATOM      8  C   UNL     1     -10.492  13.377  68.626  0.00  0.00    +0.049 A 
ENDROOT
BRANCH   3   9
ATOM      9  N   UNL     1     -12.624  15.917  71.107  0.00  0.00    +0.084 N 
ATOM     10  O   UNL     1     -13.893  15.733  71.608  0.00  0.00    -0.576 OA
ATOM     11  O   UNL     1     -11.737  16.290  71.915  0.00  0.00    +0.042 OA
ENDBRANCH   3   9
BRANCH   1  12
ATOM     12  C   UNL     1     -11.855  11.418  69.368  0.00  0.00    +0.196 C 
ATOM     13  O   UNL     1     -12.211  10.818  68.312  0.00  0.00    -0.287 OA
BRANCH  12  18
ATOM     14  C   UNL     1     -12.716   6.746  71.624  0.00  0.00    +0.031 C 
ATOM     15  C   UNL     1     -12.216   8.141  71.830  0.00  0.00    -0.022 A 
ATOM     16  C   UNL     1     -10.946   8.522  71.416  0.00  0.00    -0.004 A 
ATOM     17  C   UNL     1     -10.718   9.736  70.779  0.00  0.00    +0.003 A 
ATOM     18  C   UNL     1     -11.758  10.644  70.611  0.00  0.00    +0.039 A 
ATOM     19  C   UNL     1     -12.895  10.415  71.376  0.00  0.00    +0.003 A 
ATOM     20  C   UNL     1     -13.137   9.174  71.954  0.00  0.00    -0.004 A 
ENDBRANCH  12  18
ENDBRANCH   1  12
TORSDOF 3
ENDMDL
MODEL 5
REMARK VINA RESULT:      -7.1      2.780      3.759
REMARK  Name = 
REMARK  3 active torsions:
REMARK  status: ('A' for Active; 'I' for Inactive)
REMARK    1  A    between atoms: C_5  and  C_6
REMARK    2  A    between atoms: C_6  and  C_8
REMARK    3  A    between atoms: C_14  and  N_15
REMARK                            x       y       z     vdW  Elec       q    Type
REMARK                         _______ _______ _______ _____ _____    ______ ____
ROOT
ATOM      1  C   UNL     1     -11.645  13.174  67.147  0.00  0.00    +0.048 A 
ATOM      2  C   UNL     1     -11.010  14.351  66.773  0.00  0.00    +0.082 A 
ATOM      3  C   UNL     1     -11.296  14.977  65.578  0.00  0.00    +0.332 A 
ATOM      4  C   UNL     1     -12.124  14.275  64.713  0.00  0.00    +0.303 A 
ATOM      5  O   UNL     1     -12.743  14.968  63.672  0.00  0.00    -0.277 OA
ATOM      6  C   UNL     1     -12.472  12.950  64.933  0.00  0.00    +0.241 A 
ATOM      7  O   UNL     1     -13.000  12.181  63.902  0.00  0.00    -0.283 OA
ATOM      8  C   UNL     1     -12.052  12.352  66.113  0.00  0.00    +0.049 A 
ENDROOT
BRANCH   3   9
ATOM      9  N   UNL     1     -10.502  16.045  65.055  0.00  0.00    +0.084 N 
ATOM     10  O   UNL     1     -11.177  17.131  64.543  0.00  0.00    -0.576 OA
ATOM     11  O   UNL     1      -9.413  16.271  65.641  0.00  0.00    +0.042 OA
ENDBRANCH   3   9
BRANCH   1  12
ATOM     12  C   UNL     1     -11.482  12.740  68.516  0.00  0.00    +0.196 C 
ATOM     13  O   UNL     1     -11.112  13.598  69.371  0.00  0.00    -0.287 OA
BRANCH  12  18
ATOM     14  C   UNL     1      -9.723   8.855  71.593  0.00  0.00    +0.031 C 
ATOM     15  C   UNL     1     -10.773   9.272  70.612  0.00  0.00    -0.022 A 
ATOM     16  C   UNL     1     -11.844  10.070  70.995  0.00  0.00    -0.004 A 
ATOM     17  C   UNL     1     -12.285  11.127  70.208  0.00  0.00    +0.003 A 
ATOM     18  C   UNL     1     -11.710  11.362  68.965  0.00  0.00    +0.039 A 
ATOM     19  C   UNL     1     -10.939  10.328  68.445  0.00  0.00    +0.003 A 
ATOM     20  C   UNL     1     -10.454   9.312  69.261  0.00  0.00    -0.004 A 
ENDBRANCH  12  18
ENDBRANCH   1  12
TORSDOF 3
ENDMDL
MODEL 6
REMARK VINA RESULT:      -7.0      4.085      5.908
REMARK  Name = 
REMARK  3 active torsions:
REMARK  status: ('A' for Active; 'I' for Inactive)
REMARK    1  A    between atoms: C_5  and  C_6
REMARK    2  A    between atoms: C_6  and  C_8
REMARK    3  A    between atoms: C_14  and  N_15
REMARK                            x       y       z     vdW  Elec       q    Type
REMARK                         _______ _______ _______ _____ _____    ______ ____
ROOT
ATOM      1  C   UNL     1     -10.012  16.356  65.684  0.00  0.00    +0.048 A 
ATOM      2  C   UNL     1     -10.234  17.567  66.326  0.00  0.00    +0.082 A 
ATOM      3  C   UNL     1      -9.199  18.290  66.882  0.00  0.00    +0.332 A 
ATOM      4  C   UNL     1      -7.965  17.656  66.905  0.00  0.00    +0.303 A 
ATOM      5  O   UNL     1      -6.822  18.428  67.109  0.00  0.00    -0.277 OA
ATOM      6  C   UNL     1      -7.816  16.314  66.588  0.00  0.00    +0.241 A 
ATOM      7  O   UNL     1      -6.661  15.630  66.947  0.00  0.00    -0.283 OA
ATOM      8  C   UNL     1      -8.933  15.622  66.139  0.00  0.00    +0.049 A 
ENDROOT
BRANCH   3   9
ATOM      9  N   UNL     1      -9.415  19.407  67.749  0.00  0.00    +0.084 N 
ATOM     10  O   UNL     1      -9.974  20.533  67.186  0.00  0.00    -0.576 OA
ATOM     11  O   UNL     1      -9.731  19.142  68.936  0.00  0.00    +0.042 OA
ENDBRANCH   3   9
BRANCH   1  12
ATOM     12  C   UNL     1     -11.101  15.809  64.908  0.00  0.00    +0.196 C 
ATOM     13  O   UNL     1     -11.555  16.503  63.951  0.00  0.00    -0.287 OA
BRANCH  12  18
ATOM     14  C   UNL     1     -10.290  10.955  66.763  0.00  0.00    +0.031 C 
ATOM     15  C   UNL     1     -11.289  11.897  66.169  0.00  0.00    -0.022 A 
ATOM     16  C   UNL     1     -11.911  12.872  66.938  0.00  0.00    -0.004 A 
ATOM     17  C   UNL     1     -12.089  14.169  66.472  0.00  0.00    +0.003 A 
ATOM     18  C   UNL     1     -11.714  14.503  65.176  0.00  0.00    +0.039 A 
ATOM     19  C   UNL     1     -11.476  13.437  64.316  0.00  0.00    +0.003 A 
ATOM     20  C   UNL     1     -11.239  12.157  64.805  0.00  0.00    -0.004 A 
ENDBRANCH  12  18
ENDBRANCH   1  12
TORSDOF 3
ENDMDL
MODEL 7
REMARK VINA RESULT:      -6.9      3.400      4.579
REMARK  Name = 
REMARK  3 active torsions:
REMARK  status: ('A' for Active; 'I' for Inactive)
REMARK    1  A    between atoms: C_5  and  C_6
REMARK    2  A    between atoms: C_6  and  C_8
REMARK    3  A    between atoms: C_14  and  N_15
REMARK                            x       y       z     vdW  Elec       q    Type
REMARK                         _______ _______ _______ _____ _____    ______ ____
ROOT
ATOM      1  C   UNL     1     -10.708  11.685  67.841  0.00  0.00    +0.048 A 
ATOM      2  C   UNL     1     -11.700  11.863  66.885  0.00  0.00    +0.082 A 
ATOM      3  C   UNL     1     -11.600  12.838  65.914  0.00  0.00    +0.332 A 
ATOM      4  C   UNL     1     -10.541  13.723  66.056  0.00  0.00    +0.303 A 
ATOM      5  O   UNL     1     -10.160  14.491  64.955  0.00  0.00    -0.277 OA
ATOM      6  C   UNL     1      -9.759  13.765  67.201  0.00  0.00    +0.241 A 
ATOM      7  O   UNL     1      -8.949  14.865  67.461  0.00  0.00    -0.283 OA
ATOM      8  C   UNL     1      -9.993  12.816  68.187  0.00  0.00    +0.049 A 
ENDROOT
BRANCH   3   9
ATOM      9  N   UNL     1     -12.695  13.205  65.072  0.00  0.00    +0.084 N 
ATOM     10  O   UNL     1     -13.274  12.200  64.329  0.00  0.00    -0.576 OA
ATOM     11  O   UNL     1     -13.454  14.109  65.502  0.00  0.00    +0.042 OA
ENDBRANCH   3   9
BRANCH   1  12
ATOM     12  C   UNL     1     -10.768  10.484  68.640  0.00  0.00    +0.196 C 
ATOM     13  O   UNL     1     -10.513   9.380  68.075  0.00  0.00    -0.287 OA
BRANCH  12  18
ATOM     14  C   UNL     1     -14.142   8.663  72.242  0.00  0.00    +0.031 C 
ATOM     15  C   UNL     1     -12.924   9.500  72.004  0.00  0.00    -0.022 A 
ATOM     16  C   UNL     1     -11.673   8.923  71.827  0.00  0.00    -0.004 A 
ATOM     17  C   UNL     1     -10.795   9.370  70.847  0.00  0.00    +0.003 A 
ATOM     18  C   UNL     1     -11.120  10.472  70.066  0.00  0.00    +0.039 A 
ATOM     19  C   UNL     1     -12.170  11.257  70.527  0.00  0.00    +0.003 A 
ATOM     20  C   UNL     1     -13.077  10.770  71.462  0.00  0.00    -0.004 A 
ENDBRANCH  12  18
ENDBRANCH   1  12
TORSDOF 3
ENDMDL
MODEL 8
REMARK VINA RESULT:      -6.8      3.439      4.701
REMARK  Name = 
REMARK  3 active torsions:
REMARK  status: ('A' for Active; 'I' for Inactive)
REMARK    1  A    between atoms: C_5  and  C_6
REMARK    2  A    between atoms: C_6  and  C_8
REMARK    3  A    between atoms: C_14  and  N_15
REMARK                            x       y       z     vdW  Elec       q    Type
REMARK                         _______ _______ _______ _____ _____    ______ ____
ROOT
ATOM      1  C   UNL     1     -11.741  12.684  68.566  0.00  0.00    +0.048 A 
ATOM      2  C   UNL     1     -11.721  13.045  67.225  0.00  0.00    +0.082 A 
ATOM      3  C   UNL     1     -11.483  14.345  66.830  0.00  0.00    +0.332 A 
ATOM      4  C   UNL     1     -11.432  15.284  67.850  0.00  0.00    +0.303 A 
ATOM      5  O   UNL     1     -10.851  16.525  67.587  0.00  0.00    -0.277 OA
ATOM      6  C   UNL     1     -11.803  14.984  69.153  0.00  0.00    +0.241 A 
ATOM      7  O   UNL     1     -12.075  16.002  70.060  0.00  0.00    -0.283 OA
ATOM      8  C   UNL     1     -12.138  13.670  69.449  0.00  0.00    +0.049 A 
ENDROOT
BRANCH   3   9
ATOM      9  N   UNL     1     -11.688  14.795  65.489  0.00  0.00    +0.084 N 
ATOM     10  O   UNL     1     -10.567  14.951  64.705  0.00  0.00    -0.576 OA
ATOM     11  O   UNL     1     -12.735  14.397  64.919  0.00  0.00    +0.042 OA
ENDBRANCH   3   9
BRANCH   1  12
ATOM     12  C   UNL     1     -11.730  11.273  68.872  0.00  0.00    +0.196 C 
ATOM     13  O   UNL     1     -11.810  10.455  67.908  0.00  0.00    -0.287 OA
BRANCH  12  18
ATOM     14  C   UNL     1     -12.498   7.046  71.907  0.00  0.00    +0.031 C 
ATOM     15  C   UNL     1     -12.053   8.475  71.871  0.00  0.00    -0.022 A 
ATOM     16  C   UNL     1     -10.785   8.827  71.428  0.00  0.00    -0.004 A 
ATOM     17  C   UNL     1     -10.580   9.916  70.589  0.00  0.00    +0.003 A 
ATOM     18  C   UNL     1     -11.645  10.737  70.236  0.00  0.00    +0.039 A 
ATOM     19  C   UNL     1     -12.797  10.602  71.001  0.00  0.00    +0.003 A 
ATOM     20  C   UNL     1     -13.013   9.475  71.786  0.00  0.00    -0.004 A 
ENDBRANCH  12  18
ENDBRANCH   1  12
TORSDOF 3
ENDMDL
MODEL 9
REMARK VINA RESULT:      -6.8      3.757      5.853
REMARK  Name = 
REMARK  3 active torsions:
REMARK  status: ('A' for Active; 'I' for Inactive)
REMARK    1  A    between atoms: C_5  and  C_6
REMARK    2  A    between atoms: C_6  and  C_8
REMARK    3  A    between atoms: C_14  and  N_15
REMARK                            x       y       z     vdW  Elec       q    Type
REMARK                         _______ _______ _______ _____ _____    ______ ____
ROOT
ATOM      1  C   UNL     1     -11.154  15.681  68.045  0.00  0.00    +0.048 A 
ATOM      2  C   UNL     1     -11.708  16.022  69.272  0.00  0.00    +0.082 A 
ATOM      3  C   UNL     1     -12.106  15.060  70.176  0.00  0.00    +0.332 A 
ATOM      4  C   UNL     1     -12.072  13.751  69.718  0.00  0.00    +0.303 A 
ATOM      5  O   UNL     1     -12.106  12.715  70.652  0.00  0.00    -0.277 OA
ATOM      6  C   UNL     1     -11.858  13.439  68.383  0.00  0.00    +0.241 A 
ATOM      7  O   UNL     1     -12.170  12.174  67.897  0.00  0.00    -0.283 OA
ATOM      8  C   UNL     1     -11.571  14.478  67.508  0.00  0.00    +0.049 A 
ENDROOT
BRANCH   3   9
ATOM      9  N   UNL     1     -12.890  15.364  71.333  0.00  0.00    +0.084 N 
ATOM     10  O   UNL     1     -12.287  16.118  72.314  0.00  0.00    -0.576 OA
ATOM     11  O   UNL     1     -14.119  15.547  71.144  0.00  0.00    +0.042 OA
ENDBRANCH   3   9
BRANCH   1  12
ATOM     12  C   UNL     1     -10.528  16.738  67.285  0.00  0.00    +0.196 C 
ATOM     13  O   UNL     1     -10.434  16.594  66.030  0.00  0.00    -0.287 OA
BRANCH  12  18
ATOM     14  C   UNL     1      -7.069  20.661  66.727  0.00  0.00    +0.031 C 
ATOM     15  C   UNL     1      -8.133  20.069  67.597  0.00  0.00    -0.022 A 
ATOM     16  C   UNL     1      -9.481  20.247  67.314  0.00  0.00    -0.004 A 
ATOM     17  C   UNL     1     -10.393  19.203  67.416  0.00  0.00    +0.003 A 
ATOM     18  C   UNL     1      -9.985  17.961  67.888  0.00  0.00    +0.039 A 
ATOM     19  C   UNL     1      -8.753  17.929  68.531  0.00  0.00    +0.003 A 
ATOM     20  C   UNL     1      -7.827  18.953  68.367  0.00  0.00    -0.004 A 
ENDBRANCH  12  18
ENDBRANCH   1  12
TORSDOF 3
ENDMDL
