MODEL 1
REMARK VINA RESULT:      -7.5      0.000      0.000
REMARK  Name = 
REMARK  13 active torsions:
REMARK  status: ('A' for Active; 'I' for Inactive)
REMARK    1  A    between atoms: C_2  and  N_5
REMARK    2  A    between atoms: C_6  and  C_8
REMARK    3  A    between atoms: N_17  and  C_18
REMARK    4  A    between atoms: C_18  and  C_19
REMARK    5  A    between atoms: C_19  and  C_21
REMARK    6  A    between atoms: C_21  and  C_22
REMARK    7  A    between atoms: C_21  and  N_29
REMARK    8  A    between atoms: C_22  and  C_23
REMARK    9  A    between atoms: C_30  and  C_32
REMARK   10  A    between atoms: C_32  and  C_33
REMARK   11  A    between atoms: C_32  and  N_37
REMARK   12  A    between atoms: C_33  and  C_34
REMARK   13  A    between atoms: C_38  and  C_40
REMARK                            x       y       z     vdW  Elec       q    Type
REMARK                         _______ _______ _______ _____ _____    ______ ____
ROOT
ATOM      1  C   UNL     1      -8.137  15.468  67.702  0.00  0.00    +0.131 C 
ENDROOT
BRANCH   1   2
ATOM      2  N   UNL     1      -9.243  14.767  68.574  0.00  0.00    -0.203 NA
ATOM      3  C   UNL     1     -10.570  14.658  68.156  0.00  0.00    +0.262 C 
ATOM      4  O   UNL     1     -10.960  15.816  67.811  0.00  0.00    -0.271 OA
BRANCH   3   5
ATOM      5  C   UNL     1     -10.953  13.474  67.080  0.00  0.00    +0.182 C 
BRANCH   5   6
ATOM      6  N   UNL     1     -11.976  12.681  68.019  0.00  0.00    -0.192 NA
ATOM      7  C   UNL     1     -11.800  11.343  68.212  0.00  0.00    +0.283 C 
ATOM      8  O   UNL     1     -11.688  10.693  67.155  0.00  0.00    -0.267 OA
BRANCH   7   9
ATOM      9  C   UNL     1     -11.945  10.543  69.435  0.00  0.00    +0.136 A 
ATOM     10  N   UNL     1     -10.941   9.637  69.579  0.00  0.00    -0.241 NA
ATOM     11  C   UNL     1     -10.986   8.711  70.567  0.00  0.00    +0.081 A 
ATOM     12  C   UNL     1     -11.891   8.919  71.588  0.00  0.00    +0.018 A 
ATOM     13  C   UNL     1     -12.340   7.833  72.319  0.00  0.00    +0.001 A 
ATOM     14  C   UNL     1     -12.192   6.561  71.774  0.00  0.00    +0.000 A 
ATOM     15  C   UNL     1     -11.159   6.306  70.911  0.00  0.00    +0.002 A 
ATOM     16  C   UNL     1     -12.417  10.189  71.699  0.00  0.00    +0.003 A 
ATOM     17  C   UNL     1     -10.515   7.418  70.383  0.00  0.00    +0.019 A 
ATOM     18  C   UNL     1     -12.405  11.076  70.626  0.00  0.00    +0.024 A 
ENDBRANCH   7   9
ENDBRANCH   5   6
BRANCH   5  19
ATOM     19  C   UNL     1     -12.181  14.360  66.360  0.00  0.00    +0.120 C 
BRANCH  19  20
ATOM     20  C   UNL     1     -12.340  13.708  65.021  0.00  0.00    +0.263 C 
ATOM     21  O   UNL     1     -13.187  12.762  64.998  0.00  0.00    -0.272 OA
ATOM     22  N   UNL     1     -12.438  14.622  63.921  0.00  0.00    -0.088 NA
ENDBRANCH  19  20
ENDBRANCH   5  19
ENDBRANCH   3   5
ENDBRANCH   1   2
BRANCH   1  23
ATOM     23  C   UNL     1      -6.838  14.444  68.292  0.00  0.00    +0.188 C 
ATOM     24  O   UNL     1      -5.831  14.935  67.250  0.00  0.00    -0.220 OA
BRANCH  23  25
ATOM     25  C   UNL     1      -7.294  13.155  67.350  0.00  0.00    +0.107 C 
BRANCH  25  27
ATOM     26  C   UNL     1      -5.800  11.448  67.310  0.00  0.00    +0.137 C 
ATOM     27  N   UNL     1      -7.000  12.044  68.190  0.00  0.00    -0.264 NA
ATOM     28  C   UNL     1      -6.245  12.450  69.289  0.00  0.00    +0.072 C 
ATOM     29  C   UNL     1      -6.037  11.213  70.332  0.00  0.00    +0.016 C 
ATOM     30  C   UNL     1      -4.889  10.388  69.335  0.00  0.00    +0.003 C 
ATOM     31  C   UNL     1      -5.060   8.929  70.057  0.00  0.00    +0.000 C 
ATOM     32  C   UNL     1      -5.869   9.038  71.273  0.00  0.00    +0.000 C 
ATOM     33  C   UNL     1      -7.316   9.129  70.784  0.00  0.00    +0.000 C 
ATOM     34  C   UNL     1      -7.350  10.342  69.875  0.00  0.00    +0.001 C 
ATOM     35  C   UNL     1      -5.909   9.990  68.123  0.00  0.00    +0.025 C 
BRANCH  26  37
ATOM     36  N   UNL     1      -7.877  10.176  66.364  0.00  0.00    -0.208 NA
ATOM     37  C   UNL     1      -6.835  11.035  66.114  0.00  0.00    +0.256 C 
ATOM     38  O   UNL     1      -6.201  10.871  65.023  0.00  0.00    -0.272 OA
BRANCH  36  40
ATOM     39  C   UNL     1      -7.791   8.859  64.627  0.00  0.00    +0.022 C 
ATOM     40  C   UNL     1      -8.481   9.387  65.292  0.00  0.00    +0.079 C 
ATOM     41  C   UNL     1      -9.398  10.376  64.578  0.00  0.00    +0.022 C 
ATOM     42  C   UNL     1      -9.437   8.441  66.020  0.00  0.00    +0.022 C 
ENDBRANCH  36  40
ENDBRANCH  26  37
ENDBRANCH  25  27
ENDBRANCH  23  25
ENDBRANCH   1  23
BRANCH   1  43
ATOM     43  C   UNL     1      -7.826  16.700  68.755  0.00  0.00    +0.051 C 
BRANCH  43  44
ATOM     44  C   UNL     1      -8.483  17.849  68.095  0.00  0.00    -0.020 A 
ATOM     45  C   UNL     1      -9.026  18.923  68.756  0.00  0.00    -0.004 A 
ATOM     46  C   UNL     1     -10.036  19.715  68.234  0.00  0.00    -0.000 A 
ATOM     47  C   UNL     1     -10.450  19.350  66.959  0.00  0.00    -0.000 A 
ATOM     48  C   UNL     1      -9.627  18.627  66.124  0.00  0.00    -0.000 A 
ATOM     49  C   UNL     1      -8.644  17.869  66.718  0.00  0.00    -0.004 A 
ENDBRANCH  43  44
ENDBRANCH   1  43
TORSDOF 13
ENDMDL
MODEL 2
REMARK VINA RESULT:      -7.4      2.787      6.619
REMARK  Name = 
REMARK  13 active torsions:
REMARK  status: ('A' for Active; 'I' for Inactive)
REMARK    1  A    between atoms: C_2  and  N_5
REMARK    2  A    between atoms: C_6  and  C_8
REMARK    3  A    between atoms: N_17  and  C_18
REMARK    4  A    between atoms: C_18  and  C_19
REMARK    5  A    between atoms: C_19  and  C_21
REMARK    6  A    between atoms: C_21  and  C_22
REMARK    7  A    between atoms: C_21  and  N_29
REMARK    8  A    between atoms: C_22  and  C_23
REMARK    9  A    between atoms: C_30  and  C_32
REMARK   10  A    between atoms: C_32  and  C_33
REMARK   11  A    between atoms: C_32  and  N_37
REMARK   12  A    between atoms: C_33  and  C_34
REMARK   13  A    between atoms: C_38  and  C_40
REMARK                            x       y       z     vdW  Elec       q    Type
REMARK                         _______ _______ _______ _____ _____    ______ ____
ROOT
ATOM      1  C   UNL     1      -6.546  16.296  69.145  0.00  0.00    +0.131 C 
ENDROOT
BRANCH   1   2
ATOM      2  N   UNL     1      -5.993  14.957  68.531  0.00  0.00    -0.203 NA
ATOM      3  C   UNL     1      -5.177  14.083  69.251  0.00  0.00    +0.262 C 
ATOM      4  O   UNL     1      -4.222  14.763  69.739  0.00  0.00    -0.271 OA
BRANCH   3   5
ATOM      5  C   UNL     1      -5.888  13.061  70.326  0.00  0.00    +0.182 C 
BRANCH   5   6
ATOM      6  N   UNL     1      -5.916  11.772  69.381  0.00  0.00    -0.192 NA
ATOM      7  C   UNL     1      -6.805  10.773  69.646  0.00  0.00    +0.283 C 
ATOM      8  O   UNL     1      -6.769  10.368  70.823  0.00  0.00    -0.267 OA
BRANCH   7   9
ATOM      9  C   UNL     1      -7.618   9.969  68.724  0.00  0.00    +0.136 A 
ATOM     10  N   UNL     1      -8.858   9.714  69.220  0.00  0.00    -0.241 NA
ATOM     11  C   UNL     1      -9.695   8.864  68.577  0.00  0.00    +0.081 A 
ATOM     12  C   UNL     1      -9.382   8.532  67.276  0.00  0.00    +0.018 A 
ATOM     13  C   UNL     1      -9.862   7.345  66.751  0.00  0.00    +0.001 A 
ATOM     14  C   UNL     1     -10.292   6.358  67.633  0.00  0.00    +0.000 A 
ATOM     15  C   UNL     1     -10.798   6.711  68.857  0.00  0.00    +0.002 A 
ATOM     16  C   UNL     1      -8.462   9.337  66.636  0.00  0.00    +0.003 A 
ATOM     17  C   UNL     1     -10.549   8.014  69.267  0.00  0.00    +0.019 A 
ATOM     18  C   UNL     1      -7.578  10.139  67.351  0.00  0.00    +0.024 A 
ENDBRANCH   7   9
ENDBRANCH   5   6
BRANCH   5  19
ATOM     19  C   UNL     1      -4.438  12.605  71.034  0.00  0.00    +0.120 C 
BRANCH  19  20
ATOM     20  C   UNL     1      -4.696  12.783  72.499  0.00  0.00    +0.263 C 
ATOM     21  O   UNL     1      -5.658  13.567  72.769  0.00  0.00    -0.272 OA
ATOM     22  N   UNL     1      -4.688  11.566  73.257  0.00  0.00    -0.088 NA
ENDBRANCH  19  20
ENDBRANCH   5  19
ENDBRANCH   3   5
ENDBRANCH   1   2
BRANCH   1  23
ATOM     23  C   UNL     1      -7.988  16.312  68.144  0.00  0.00    +0.188 C 
ATOM     24  O   UNL     1      -8.479  17.658  68.681  0.00  0.00    -0.220 OA
BRANCH  23  25
ATOM     25  C   UNL     1      -8.886  15.462  69.252  0.00  0.00    +0.107 C 
BRANCH  25  27
ATOM     26  C   UNL     1     -10.892  15.685  68.216  0.00  0.00    +0.137 C 
ATOM     27  N   UNL     1      -9.696  14.638  68.420  0.00  0.00    -0.264 NA
ATOM     28  C   UNL     1      -9.216  14.643  67.111  0.00  0.00    +0.072 C 
ATOM     29  C   UNL     1     -10.045  13.583  66.190  0.00  0.00    +0.016 C 
ATOM     30  C   UNL     1     -11.467  14.564  66.102  0.00  0.00    +0.003 C 
ATOM     31  C   UNL     1     -12.479  13.353  65.670  0.00  0.00    +0.000 C 
ATOM     32  C   UNL     1     -11.731  12.134  65.352  0.00  0.00    +0.000 C 
ATOM     33  C   UNL     1     -11.353  11.532  66.706  0.00  0.00    +0.000 C 
ATOM     34  C   UNL     1     -10.555  12.613  67.410  0.00  0.00    +0.001 C 
ATOM     35  C   UNL     1     -11.894  14.459  67.675  0.00  0.00    +0.025 C 
BRANCH  26  37
ATOM     36  N   UNL     1     -12.107  14.506  70.207  0.00  0.00    -0.208 NA
ATOM     37  C   UNL     1     -11.323  15.554  69.788  0.00  0.00    +0.256 C 
ATOM     38  O   UNL     1     -11.590  16.702  70.267  0.00  0.00    -0.272 OA
BRANCH  36  40
ATOM     39  C   UNL     1     -13.827  15.229  71.337  0.00  0.00    +0.022 C 
ATOM     40  C   UNL     1     -12.927  14.611  71.412  0.00  0.00    +0.079 C 
ATOM     41  C   UNL     1     -11.946  15.068  72.488  0.00  0.00    +0.022 C 
ATOM     42  C   UNL     1     -13.238  13.158  71.776  0.00  0.00    +0.022 C 
ENDBRANCH  36  40
ENDBRANCH  26  37
ENDBRANCH  25  27
ENDBRANCH  23  25
ENDBRANCH   1  23
BRANCH   1  43
ATOM     43  C   UNL     1      -5.691  17.314  68.167  0.00  0.00    +0.051 C 
BRANCH  43  44
ATOM     44  C   UNL     1      -5.271  18.374  69.109  0.00  0.00    -0.020 A 
ATOM     45  C   UNL     1      -5.079  18.190  70.456  0.00  0.00    -0.004 A 
ATOM     46  C   UNL     1      -5.176  19.208  71.391  0.00  0.00    -0.000 A 
ATOM     47  C   UNL     1      -5.467  20.455  70.853  0.00  0.00    -0.000 A 
ATOM     48  C   UNL     1      -5.191  20.743  69.534  0.00  0.00    -0.000 A 
ATOM     49  C   UNL     1      -5.103  19.677  68.668  0.00  0.00    -0.004 A 
ENDBRANCH  43  44
ENDBRANCH   1  43
TORSDOF 13
ENDMDL
MODEL 3
REMARK VINA RESULT:      -7.3      3.059      6.961
REMARK  Name = 
REMARK  13 active torsions:
REMARK  status: ('A' for Active; 'I' for Inactive)
REMARK    1  A    between atoms: C_2  and  N_5
REMARK    2  A    between atoms: C_6  and  C_8
REMARK    3  A    between atoms: N_17  and  C_18
REMARK    4  A    between atoms: C_18  and  C_19
REMARK    5  A    between atoms: C_19  and  C_21
REMARK    6  A    between atoms: C_21  and  C_22
REMARK    7  A    between atoms: C_21  and  N_29
REMARK    8  A    between atoms: C_22  and  C_23
REMARK    9  A    between atoms: C_30  and  C_32
REMARK   10  A    between atoms: C_32  and  C_33
REMARK   11  A    between atoms: C_32  and  N_37
REMARK   12  A    between atoms: C_33  and  C_34
REMARK   13  A    between atoms: C_38  and  C_40
REMARK                            x       y       z     vdW  Elec       q    Type
REMARK                         _______ _______ _______ _____ _____    ______ ____
ROOT
ATOM      1  C   UNL     1      -6.657  16.540  69.142  0.00  0.00    +0.131 C 
ENDROOT
BRANCH   1   2
ATOM      2  N   UNL     1      -5.995  15.251  68.528  0.00  0.00    -0.203 NA
ATOM      3  C   UNL     1      -5.150  14.420  69.263  0.00  0.00    +0.262 C 
ATOM      4  O   UNL     1      -4.260  15.152  69.798  0.00  0.00    -0.271 OA
BRANCH   3   5
ATOM      5  C   UNL     1      -5.831  13.333  70.294  0.00  0.00    +0.182 C 
BRANCH   5   6
ATOM      6  N   UNL     1      -5.766  12.070  69.317  0.00  0.00    -0.192 NA
ATOM      7  C   UNL     1      -6.688  11.076  69.454  0.00  0.00    +0.283 C 
ATOM      8  O   UNL     1      -6.787  10.639  70.617  0.00  0.00    -0.267 OA
BRANCH   7   9
ATOM      9  C   UNL     1      -7.401  10.306  68.426  0.00  0.00    +0.136 A 
ATOM     10  N   UNL     1      -6.647  10.115  67.311  0.00  0.00    -0.241 NA
ATOM     11  C   UNL     1      -7.189   9.558  66.201  0.00  0.00    +0.081 A 
ATOM     12  C   UNL     1      -8.400   8.912  66.345  0.00  0.00    +0.018 A 
ATOM     13  C   UNL     1      -9.223   8.773  65.241  0.00  0.00    +0.001 A 
ATOM     14  C   UNL     1      -9.009   9.607  64.147  0.00  0.00    +0.000 A 
ATOM     15  C   UNL     1      -7.750  10.084  63.890  0.00  0.00    +0.002 A 
ATOM     16  C   UNL     1      -8.783   8.594  67.631  0.00  0.00    +0.003 A 
ATOM     17  C   UNL     1      -6.829   9.966  64.924  0.00  0.00    +0.019 A 
ATOM     18  C   UNL     1      -8.241   9.251  68.733  0.00  0.00    +0.024 A 
ENDBRANCH   7   9
ENDBRANCH   5   6
BRANCH   5  19
ATOM     19  C   UNL     1      -4.375  12.937  71.028  0.00  0.00    +0.120 C 
BRANCH  19  20
ATOM     20  C   UNL     1      -4.715  12.919  72.486  0.00  0.00    +0.263 C 
ATOM     21  O   UNL     1      -5.720  13.632  72.797  0.00  0.00    -0.272 OA
ATOM     22  N   UNL     1      -4.699  11.618  73.086  0.00  0.00    -0.088 NA
ENDBRANCH  19  20
ENDBRANCH   5  19
ENDBRANCH   3   5
ENDBRANCH   1   2
BRANCH   1  23
ATOM     23  C   UNL     1      -8.099  16.432  68.145  0.00  0.00    +0.188 C 
ATOM     24  O   UNL     1      -8.678  17.756  68.647  0.00  0.00    -0.220 OA
BRANCH  23  25
ATOM     25  C   UNL     1      -8.936  15.553  69.277  0.00  0.00    +0.107 C 
BRANCH  25  27
ATOM     26  C   UNL     1     -10.942  15.608  68.219  0.00  0.00    +0.137 C 
ATOM     27  N   UNL     1      -9.683  14.649  68.469  0.00  0.00    -0.264 NA
ATOM     28  C   UNL     1      -9.191  14.639  67.165  0.00  0.00    +0.072 C 
ATOM     29  C   UNL     1      -9.941  13.495  66.276  0.00  0.00    +0.016 C 
ATOM     30  C   UNL     1     -11.423  14.378  66.142  0.00  0.00    +0.003 C 
ATOM     31  C   UNL     1     -12.350  13.089  65.747  0.00  0.00    +0.000 C 
ATOM     32  C   UNL     1     -11.522  11.910  65.478  0.00  0.00    +0.000 C 
ATOM     33  C   UNL     1     -11.118  11.383  66.856  0.00  0.00    +0.000 C 
ATOM     34  C   UNL     1     -10.400  12.538  67.527  0.00  0.00    +0.001 C 
ATOM     35  C   UNL     1     -11.857  14.301  67.715  0.00  0.00    +0.025 C 
BRANCH  26  37
ATOM     36  N   UNL     1     -12.137  14.448  70.232  0.00  0.00    -0.208 NA
ATOM     37  C   UNL     1     -11.379  15.505  69.791  0.00  0.00    +0.256 C 
ATOM     38  O   UNL     1     -11.679  16.657  70.240  0.00  0.00    -0.272 OA
BRANCH  36  40
ATOM     39  C   UNL     1     -13.885  15.148  71.334  0.00  0.00    +0.022 C 
ATOM     40  C   UNL     1     -12.967  14.561  71.430  0.00  0.00    +0.079 C 
ATOM     41  C   UNL     1     -12.006  15.078  72.497  0.00  0.00    +0.022 C 
ATOM     42  C   UNL     1     -13.236  13.109  71.834  0.00  0.00    +0.022 C 
ENDBRANCH  36  40
ENDBRANCH  26  37
ENDBRANCH  25  27
ENDBRANCH  23  25
ENDBRANCH   1  23
BRANCH   1  43
ATOM     43  C   UNL     1      -5.895  17.625  68.160  0.00  0.00    +0.051 C 
BRANCH  43  44
ATOM     44  C   UNL     1      -5.329  18.584  69.134  0.00  0.00    -0.020 A 
ATOM     45  C   UNL     1      -5.241  18.363  70.486  0.00  0.00    -0.004 A 
ATOM     46  C   UNL     1      -5.191  19.379  71.428  0.00  0.00    -0.000 A 
ATOM     47  C   UNL     1      -5.214  20.660  70.891  0.00  0.00    -0.000 A 
ATOM     48  C   UNL     1      -4.824  20.894  69.591  0.00  0.00    -0.000 A 
ATOM     49  C   UNL     1      -4.896  19.833  68.717  0.00  0.00    -0.004 A 
ENDBRANCH  43  44
ENDBRANCH   1  43
TORSDOF 13
ENDMDL
MODEL 4
REMARK VINA RESULT:      -6.9      1.681      2.279
REMARK  Name = 
REMARK  13 active torsions:
REMARK  status: ('A' for Active; 'I' for Inactive)
REMARK    1  A    between atoms: C_2  and  N_5
REMARK    2  A    between atoms: C_6  and  C_8
REMARK    3  A    between atoms: N_17  and  C_18
REMARK    4  A    between atoms: C_18  and  C_19
REMARK    5  A    between atoms: C_19  and  C_21
REMARK    6  A    between atoms: C_21  and  C_22
REMARK    7  A    between atoms: C_21  and  N_29
REMARK    8  A    between atoms: C_22  and  C_23
REMARK    9  A    between atoms: C_30  and  C_32
REMARK   10  A    between atoms: C_32  and  C_33
REMARK   11  A    between atoms: C_32  and  N_37
REMARK   12  A    between atoms: C_33  and  C_34
REMARK   13  A    between atoms: C_38  and  C_40
REMARK                            x       y       z     vdW  Elec       q    Type
REMARK                         _______ _______ _______ _____ _____    ______ ____
ROOT
ATOM      1  C   UNL     1      -8.630  14.478  67.901  0.00  0.00    +0.131 C 
ENDROOT
BRANCH   1   2
ATOM      2  N   UNL     1      -9.650  13.362  68.338  0.00  0.00    -0.203 NA
ATOM      3  C   UNL     1     -10.776  13.038  67.580  0.00  0.00    +0.262 C 
ATOM      4  O   UNL     1     -11.395  14.119  67.331  0.00  0.00    -0.271 OA
BRANCH   3   5
ATOM      5  C   UNL     1     -10.579  12.063  66.270  0.00  0.00    +0.182 C 
BRANCH   5   6
ATOM      6  N   UNL     1     -11.267  10.760  66.892  0.00  0.00    -0.192 NA
ATOM      7  C   UNL     1     -10.555   9.600  66.957  0.00  0.00    +0.283 C 
ATOM      8  O   UNL     1     -10.039   9.265  65.873  0.00  0.00    -0.267 OA
BRANCH   7   9
ATOM      9  C   UNL     1     -10.491   8.594  68.025  0.00  0.00    +0.136 A 
ATOM     10  N   UNL     1     -10.879   9.096  69.228  0.00  0.00    -0.241 NA
ATOM     11  C   UNL     1     -10.745   8.360  70.358  0.00  0.00    +0.081 A 
ATOM     12  C   UNL     1     -10.515   7.008  70.207  0.00  0.00    +0.018 A 
ATOM     13  C   UNL     1      -9.890   6.315  71.228  0.00  0.00    +0.001 A 
ATOM     14  C   UNL     1      -9.170   7.038  72.175  0.00  0.00    +0.000 A 
ATOM     15  C   UNL     1      -9.535   8.325  72.471  0.00  0.00    +0.002 A 
ATOM     16  C   UNL     1     -10.777   6.470  68.964  0.00  0.00    +0.003 A 
ATOM     17  C   UNL     1     -10.401   8.936  71.573  0.00  0.00    +0.019 A 
ATOM     18  C   UNL     1     -10.834   7.269  67.825  0.00  0.00    +0.024 A 
ENDBRANCH   7   9
ENDBRANCH   5   6
BRANCH   5  19
ATOM     19  C   UNL     1     -12.003  12.559  65.536  0.00  0.00    +0.120 C 
BRANCH  19  20
ATOM     20  C   UNL     1     -11.755  12.294  64.083  0.00  0.00    +0.263 C 
ATOM     21  O   UNL     1     -12.504  12.954  63.297  0.00  0.00    -0.272 OA
ATOM     22  N   UNL     1     -10.372  12.271  63.710  0.00  0.00    -0.088 NA
ENDBRANCH  19  20
ENDBRANCH   5  19
ENDBRANCH   3   5
ENDBRANCH   1   2
BRANCH   1  23
ATOM     23  C   UNL     1      -7.249  13.688  68.644  0.00  0.00    +0.188 C 
ATOM     24  O   UNL     1      -6.241  14.711  68.116  0.00  0.00    -0.220 OA
BRANCH  23  25
ATOM     25  C   UNL     1      -7.007  12.675  67.351  0.00  0.00    +0.107 C 
BRANCH  25  27
ATOM     26  C   UNL     1      -5.131  11.473  67.774  0.00  0.00    +0.137 C 
ATOM     27  N   UNL     1      -6.720  11.434  67.985  0.00  0.00    -0.264 NA
ATOM     28  C   UNL     1      -6.729  11.580  69.372  0.00  0.00    +0.072 C 
ATOM     29  C   UNL     1      -6.553  10.133  70.104  0.00  0.00    +0.016 C 
ATOM     30  C   UNL     1      -4.871   9.994  69.725  0.00  0.00    +0.003 C 
ATOM     31  C   UNL     1      -4.783   8.375  69.948  0.00  0.00    +0.000 C 
ATOM     32  C   UNL     1      -6.017   7.862  70.549  0.00  0.00    +0.000 C 
ATOM     33  C   UNL     1      -7.024   7.795  69.400  0.00  0.00    +0.000 C 
ATOM     34  C   UNL     1      -7.107   9.212  68.865  0.00  0.00    +0.001 C 
ATOM     35  C   UNL     1      -5.032   9.836  68.107  0.00  0.00    +0.025 C 
BRANCH  26  37
ATOM     36  N   UNL     1      -5.828  10.130  65.644  0.00  0.00    -0.208 NA
ATOM     37  C   UNL     1      -5.305  11.291  66.159  0.00  0.00    +0.256 C 
ATOM     38  O   UNL     1      -4.307  11.794  65.551  0.00  0.00    -0.272 OA
BRANCH  36  40
ATOM     39  C   UNL     1      -5.452  10.502  63.527  0.00  0.00    +0.022 C 
ATOM     40  C   UNL     1      -5.530   9.708  64.276  0.00  0.00    +0.079 C 
ATOM     41  C   UNL     1      -6.603   8.667  63.970  0.00  0.00    +0.022 C 
ATOM     42  C   UNL     1      -4.241   8.896  64.411  0.00  0.00    +0.022 C 
ENDBRANCH  36  40
ENDBRANCH  26  37
ENDBRANCH  25  27
ENDBRANCH  23  25
ENDBRANCH   1  23
BRANCH   1  43
ATOM     43  C   UNL     1      -8.908  15.490  69.175  0.00  0.00    +0.051 C 
BRANCH  43  44
ATOM     44  C   UNL     1      -8.998  16.809  68.512  0.00  0.00    -0.020 A 
ATOM     45  C   UNL     1      -8.019  17.771  68.552  0.00  0.00    -0.004 A 
ATOM     46  C   UNL     1      -8.265  19.124  68.385  0.00  0.00    -0.000 A 
ATOM     47  C   UNL     1      -9.597  19.440  68.149  0.00  0.00    -0.000 A 
ATOM     48  C   UNL     1     -10.470  18.504  67.640  0.00  0.00    -0.000 A 
ATOM     49  C   UNL     1     -10.153  17.179  67.842  0.00  0.00    -0.004 A 
ENDBRANCH  43  44
ENDBRANCH   1  43
TORSDOF 13
ENDMDL
MODEL 5
REMARK VINA RESULT:      -6.9      2.363      6.828
REMARK  Name = 
REMARK  13 active torsions:
REMARK  status: ('A' for Active; 'I' for Inactive)
REMARK    1  A    between atoms: C_2  and  N_5
REMARK    2  A    between atoms: C_6  and  C_8
REMARK    3  A    between atoms: N_17  and  C_18
REMARK    4  A    between atoms: C_18  and  C_19
REMARK    5  A    between atoms: C_19  and  C_21
REMARK    6  A    between atoms: C_21  and  C_22
REMARK    7  A    between atoms: C_21  and  N_29
REMARK    8  A    between atoms: C_22  and  C_23
REMARK    9  A    between atoms: C_30  and  C_32
REMARK   10  A    between atoms: C_32  and  C_33
REMARK   11  A    between atoms: C_32  and  N_37
REMARK   12  A    between atoms: C_33  and  C_34
REMARK   13  A    between atoms: C_38  and  C_40
REMARK                            x       y       z     vdW  Elec       q    Type
REMARK                         _______ _______ _______ _____ _____    ______ ____
ROOT
ATOM      1  C   UNL     1      -9.449  12.624  67.778  0.00  0.00    +0.131 C 
ENDROOT
BRANCH   1   2
ATOM      2  N   UNL     1     -10.825  13.281  67.391  0.00  0.00    -0.203 NA
ATOM      3  C   UNL     1     -12.045  12.801  67.868  0.00  0.00    +0.262 C 
ATOM      4  O   UNL     1     -12.082  11.552  67.641  0.00  0.00    -0.271 OA
BRANCH   3   5
ATOM      5  C   UNL     1     -12.504  13.219  69.392  0.00  0.00    +0.182 C 
BRANCH   5   6
ATOM      6  N   UNL     1     -11.770  12.018  70.152  0.00  0.00    -0.192 NA
ATOM      7  C   UNL     1     -12.487  11.239  71.010  0.00  0.00    +0.283 C 
ATOM      8  O   UNL     1     -13.123  11.885  71.865  0.00  0.00    -0.267 OA
BRANCH   7   9
ATOM      9  C   UNL     1     -12.448   9.785  71.215  0.00  0.00    +0.136 A 
ATOM     10  N   UNL     1     -11.465   9.414  72.079  0.00  0.00    -0.241 NA
ATOM     11  C   UNL     1     -11.180   8.104  72.276  0.00  0.00    +0.081 A 
ATOM     12  C   UNL     1     -12.107   7.182  71.835  0.00  0.00    +0.018 A 
ATOM     13  C   UNL     1     -11.689   5.895  71.546  0.00  0.00    +0.001 A 
ATOM     14  C   UNL     1     -10.333   5.674  71.324  0.00  0.00    +0.000 A 
ATOM     15  C   UNL     1      -9.403   6.474  71.934  0.00  0.00    +0.002 A 
ATOM     16  C   UNL     1     -13.369   7.661  71.551  0.00  0.00    +0.003 A 
ATOM     17  C   UNL     1      -9.881   7.659  72.480  0.00  0.00    +0.019 A 
ATOM     18  C   UNL     1     -13.591   9.010  71.288  0.00  0.00    +0.024 A 
ENDBRANCH   7   9
ENDBRANCH   5   6
BRANCH   5  19
ATOM     19  C   UNL     1     -11.209  14.259  69.625  0.00  0.00    +0.120 C 
BRANCH  19  20
ATOM     20  C   UNL     1     -11.865  15.550  70.008  0.00  0.00    +0.263 C 
ATOM     21  O   UNL     1     -12.176  16.290  69.024  0.00  0.00    -0.272 OA
ATOM     22  N   UNL     1     -12.886  15.426  71.007  0.00  0.00    -0.088 NA
ENDBRANCH  19  20
ENDBRANCH   5  19
ENDBRANCH   3   5
ENDBRANCH   1   2
BRANCH   1  23
ATOM     23  C   UNL     1      -8.487  13.898  67.046  0.00  0.00    +0.188 C 
ATOM     24  O   UNL     1      -7.175  13.118  67.151  0.00  0.00    -0.220 OA
BRANCH  23  25
ATOM     25  C   UNL     1      -8.228  14.669  68.493  0.00  0.00    +0.107 C 
BRANCH  25  27
ATOM     26  C   UNL     1      -7.108  16.323  67.416  0.00  0.00    +0.137 C 
ATOM     27  N   UNL     1      -8.495  16.029  68.166  0.00  0.00    -0.264 NA
ATOM     28  C   UNL     1      -9.331  16.109  67.053  0.00  0.00    +0.072 C 
ATOM     29  C   UNL     1      -9.763  17.655  66.768  0.00  0.00    +0.016 C 
ATOM     30  C   UNL     1      -8.217  18.114  66.143  0.00  0.00    +0.003 C 
ATOM     31  C   UNL     1      -8.425  19.724  66.350  0.00  0.00    +0.000 C 
ATOM     32  C   UNL     1      -9.809  20.030  66.720  0.00  0.00    +0.000 C 
ATOM     33  C   UNL     1      -9.912  19.679  68.205  0.00  0.00    +0.000 C 
ATOM     34  C   UNL     1      -9.529  18.213  68.292  0.00  0.00    +0.001 C 
ATOM     35  C   UNL     1      -7.375  17.970  67.536  0.00  0.00    +0.025 C 
BRANCH  26  37
ATOM     36  N   UNL     1      -6.145  17.289  69.645  0.00  0.00    -0.208 NA
ATOM     37  C   UNL     1      -6.281  16.198  68.821  0.00  0.00    +0.256 C 
ATOM     38  O   UNL     1      -5.254  15.464  68.662  0.00  0.00    -0.272 OA
BRANCH  36  40
ATOM     39  C   UNL     1      -4.845  16.511  71.214  0.00  0.00    +0.022 C 
ATOM     40  C   UNL     1      -5.035  17.389  70.590  0.00  0.00    +0.079 C 
ATOM     41  C   UNL     1      -5.336  18.660  71.379  0.00  0.00    +0.022 C 
ATOM     42  C   UNL     1      -3.836  17.762  69.715  0.00  0.00    +0.022 C 
ENDBRANCH  36  40
ENDBRANCH  26  37
ENDBRANCH  25  27
ENDBRANCH  23  25
ENDBRANCH   1  23
BRANCH   1  43
ATOM     43  C   UNL     1      -9.353  11.617  66.475  0.00  0.00    +0.051 C 
BRANCH  43  44
ATOM     44  C   UNL     1      -9.387  10.281  67.108  0.00  0.00    -0.020 A 
ATOM     45  C   UNL     1      -9.888   9.149  66.515  0.00  0.00    -0.004 A 
ATOM     46  C   UNL     1     -10.373   8.061  67.224  0.00  0.00    -0.000 A 
ATOM     47  C   UNL     1     -10.293   8.195  68.605  0.00  0.00    -0.000 A 
ATOM     48  C   UNL     1      -9.392   9.060  69.184  0.00  0.00    -0.000 A 
ATOM     49  C   UNL     1      -8.952  10.113  68.413  0.00  0.00    -0.004 A 
ENDBRANCH  43  44
ENDBRANCH   1  43
TORSDOF 13
ENDMDL
MODEL 6
REMARK VINA RESULT:      -6.9      1.984      2.857
REMARK  Name = 
REMARK  13 active torsions:
REMARK  status: ('A' for Active; 'I' for Inactive)
REMARK    1  A    between atoms: C_2  and  N_5
REMARK    2  A    between atoms: C_6  and  C_8
REMARK    3  A    between atoms: N_17  and  C_18
REMARK    4  A    between atoms: C_18  and  C_19
REMARK    5  A    between atoms: C_19  and  C_21
REMARK    6  A    between atoms: C_21  and  C_22
REMARK    7  A    between atoms: C_21  and  N_29
REMARK    8  A    between atoms: C_22  and  C_23
REMARK    9  A    between atoms: C_30  and  C_32
REMARK   10  A    between atoms: C_32  and  C_33
REMARK   11  A    between atoms: C_32  and  N_37
REMARK   12  A    between atoms: C_33  and  C_34
REMARK   13  A    between atoms: C_38  and  C_40
REMARK                            x       y       z     vdW  Elec       q    Type
REMARK                         _______ _______ _______ _____ _____    ______ ____
ROOT
ATOM      1  C   UNL     1      -7.093  13.617  67.630  0.00  0.00    +0.131 C 
ENDROOT
BRANCH   1   2
ATOM      2  N   UNL     1      -8.481  13.646  68.371  0.00  0.00    -0.203 NA
ATOM      3  C   UNL     1      -9.568  14.382  67.898  0.00  0.00    +0.262 C 
ATOM      4  O   UNL     1      -9.166  15.567  67.684  0.00  0.00    -0.271 OA
BRANCH   3   5
ATOM      5  C   UNL     1     -10.463  13.747  66.672  0.00  0.00    +0.182 C 
BRANCH   5   6
ATOM      6  N   UNL     1     -11.663  13.195  67.573  0.00  0.00    -0.192 NA
ATOM      7  C   UNL     1     -11.705  11.868  67.883  0.00  0.00    +0.283 C 
ATOM      8  O   UNL     1     -11.609  11.117  66.894  0.00  0.00    -0.267 OA
BRANCH   7   9
ATOM      9  C   UNL     1     -12.063  11.209  69.146  0.00  0.00    +0.136 A 
ATOM     10  N   UNL     1     -11.227  10.178  69.443  0.00  0.00    -0.241 NA
ATOM     11  C   UNL     1     -11.489   9.359  70.491  0.00  0.00    +0.081 A 
ATOM     12  C   UNL     1     -12.422   9.790  71.411  0.00  0.00    +0.018 A 
ATOM     13  C   UNL     1     -13.087   8.853  72.181  0.00  0.00    +0.001 A 
ATOM     14  C   UNL     1     -13.102   7.530  71.748  0.00  0.00    +0.000 A 
ATOM     15  C   UNL     1     -12.061   7.048  70.998  0.00  0.00    +0.002 A 
ATOM     16  C   UNL     1     -12.748  11.130  71.381  0.00  0.00    +0.003 A 
ATOM     17  C   UNL     1     -11.214   8.000  70.445  0.00  0.00    +0.019 A 
ATOM     18  C   UNL     1     -12.519  11.907  70.249  0.00  0.00    +0.024 A 
ENDBRANCH   7   9
ENDBRANCH   5   6
BRANCH   5  19
ATOM     19  C   UNL     1     -11.264  15.186  66.351  0.00  0.00    +0.120 C 
BRANCH  19  20
ATOM     20  C   UNL     1     -11.401  15.181  64.860  0.00  0.00    +0.263 C 
ATOM     21  O   UNL     1     -12.348  14.455  64.425  0.00  0.00    -0.272 OA
ATOM     22  N   UNL     1     -11.314  16.476  64.250  0.00  0.00    -0.088 NA
ENDBRANCH  19  20
ENDBRANCH   5  19
ENDBRANCH   3   5
ENDBRANCH   1   2
BRANCH   1  23
ATOM     23  C   UNL     1      -6.835  11.902  67.907  0.00  0.00    +0.188 C 
ATOM     24  O   UNL     1      -5.341  11.964  67.583  0.00  0.00    -0.220 OA
BRANCH  23  25
ATOM     25  C   UNL     1      -7.229  11.490  66.348  0.00  0.00    +0.107 C 
BRANCH  25  27
ATOM     26  C   UNL     1      -6.573   9.364  65.905  0.00  0.00    +0.137 C 
ATOM     27  N   UNL     1      -7.802  10.197  66.510  0.00  0.00    -0.264 NA
ATOM     28  C   UNL     1      -7.684   9.773  67.833  0.00  0.00    +0.072 C 
ATOM     29  C   UNL     1      -8.472   8.363  68.058  0.00  0.00    +0.016 C 
ATOM     30  C   UNL     1      -7.292   7.413  67.222  0.00  0.00    +0.003 C 
ATOM     31  C   UNL     1      -8.270   6.130  66.953  0.00  0.00    +0.000 C 
ATOM     32  C   UNL     1      -9.528   6.266  67.692  0.00  0.00    +0.000 C 
ATOM     33  C   UNL     1     -10.363   7.258  66.880  0.00  0.00    +0.000 C 
ATOM     34  C   UNL     1      -9.518   8.516  66.804  0.00  0.00    +0.001 C 
ATOM     35  C   UNL     1      -7.552   8.019  65.728  0.00  0.00    +0.025 C 
BRANCH  26  37
ATOM     36  N   UNL     1      -7.886   9.459  63.648  0.00  0.00    -0.208 NA
ATOM     37  C   UNL     1      -6.859   9.960  64.409  0.00  0.00    +0.256 C 
ATOM     38  O   UNL     1      -5.761  10.196  63.813  0.00  0.00    -0.272 OA
BRANCH  36  40
ATOM     39  C   UNL     1      -6.934   9.268  61.694  0.00  0.00    +0.022 C 
ATOM     40  C   UNL     1      -7.865   9.559  62.190  0.00  0.00    +0.079 C 
ATOM     41  C   UNL     1      -8.294  10.998  61.913  0.00  0.00    +0.022 C 
ATOM     42  C   UNL     1      -9.060   8.716  61.742  0.00  0.00    +0.022 C 
ENDBRANCH  36  40
ENDBRANCH  26  37
ENDBRANCH  25  27
ENDBRANCH  23  25
ENDBRANCH   1  23
BRANCH   1  43
ATOM     43  C   UNL     1      -6.185  14.100  68.920  0.00  0.00    +0.051 C 
BRANCH  43  44
ATOM     44  C   UNL     1      -5.984  15.539  68.640  0.00  0.00    -0.020 A 
ATOM     45  C   UNL     1      -6.268  16.553  69.520  0.00  0.00    -0.004 A 
ATOM     46  C   UNL     1      -6.555  17.851  69.129  0.00  0.00    -0.000 A 
ATOM     47  C   UNL     1      -6.512  18.059  67.756  0.00  0.00    -0.000 A 
ATOM     48  C   UNL     1      -5.786  17.227  66.933  0.00  0.00    -0.000 A 
ATOM     49  C   UNL     1      -5.536  15.955  67.395  0.00  0.00    -0.004 A 
ENDBRANCH  43  44
ENDBRANCH   1  43
TORSDOF 13
ENDMDL
MODEL 7
REMARK VINA RESULT:      -6.9      3.144      7.256
REMARK  Name = 
REMARK  13 active torsions:
REMARK  status: ('A' for Active; 'I' for Inactive)
REMARK    1  A    between atoms: C_2  and  N_5
REMARK    2  A    between atoms: C_6  and  C_8
REMARK    3  A    between atoms: N_17  and  C_18
REMARK    4  A    between atoms: C_18  and  C_19
REMARK    5  A    between atoms: C_19  and  C_21
REMARK    6  A    between atoms: C_21  and  C_22
REMARK    7  A    between atoms: C_21  and  N_29
REMARK    8  A    between atoms: C_22  and  C_23
REMARK    9  A    between atoms: C_30  and  C_32
REMARK   10  A    between atoms: C_32  and  C_33
REMARK   11  A    between atoms: C_32  and  N_37
REMARK   12  A    between atoms: C_33  and  C_34
REMARK   13  A    between atoms: C_38  and  C_40
REMARK                            x       y       z     vdW  Elec       q    Type
REMARK                         _______ _______ _______ _____ _____    ______ ____
ROOT
ATOM      1  C   UNL     1      -7.915  17.572  67.423  0.00  0.00    +0.131 C 
ENDROOT
BRANCH   1   2
ATOM      2  N   UNL     1      -6.854  16.623  66.754  0.00  0.00    -0.203 NA
ATOM      3  C   UNL     1      -5.726  16.163  67.435  0.00  0.00    +0.262 C 
ATOM      4  O   UNL     1      -5.145  17.172  67.943  0.00  0.00    -0.271 OA
BRANCH   3   5
ATOM      5  C   UNL     1      -5.904  14.900  68.473  0.00  0.00    +0.182 C 
BRANCH   5   6
ATOM      6  N   UNL     1      -5.199  13.794  67.559  0.00  0.00    -0.192 NA
ATOM      7  C   UNL     1      -5.635  12.504  67.620  0.00  0.00    +0.283 C 
ATOM      8  O   UNL     1      -5.691  12.046  68.777  0.00  0.00    -0.267 OA
BRANCH   7   9
ATOM      9  C   UNL     1      -5.830  11.525  66.542  0.00  0.00    +0.136 A 
ATOM     10  N   UNL     1      -4.779  11.494  65.680  0.00  0.00    -0.241 NA
ATOM     11  C   UNL     1      -4.844  10.761  64.541  0.00  0.00    +0.081 A 
ATOM     12  C   UNL     1      -5.850   9.821  64.452  0.00  0.00    +0.018 A 
ATOM     13  C   UNL     1      -6.281   9.416  63.201  0.00  0.00    +0.001 A 
ATOM     14  C   UNL     1      -5.991  10.226  62.107  0.00  0.00    +0.000 A 
ATOM     15  C   UNL     1      -4.868  11.012  62.119  0.00  0.00    +0.002 A 
ATOM     16  C   UNL     1      -6.476   9.470  65.630  0.00  0.00    +0.003 A 
ATOM     17  C   UNL     1      -4.264  11.193  63.357  0.00  0.00    +0.019 A 
ATOM     18  C   UNL     1      -6.433  10.298  66.749  0.00  0.00    +0.024 A 
ENDBRANCH   7   9
ENDBRANCH   5   6
BRANCH   5  19
ATOM     19  C   UNL     1      -4.485  15.228  69.305  0.00  0.00    +0.120 C 
BRANCH  19  20
ATOM     20  C   UNL     1      -4.904  15.175  70.741  0.00  0.00    +0.263 C 
ATOM     21  O   UNL     1      -5.905  14.426  70.967  0.00  0.00    -0.272 OA
ATOM     22  N   UNL     1      -3.825  15.023  71.672  0.00  0.00    -0.088 NA
ENDBRANCH  19  20
ENDBRANCH   5  19
ENDBRANCH   3   5
ENDBRANCH   1   2
BRANCH   1  23
ATOM     23  C   UNL     1      -9.287  16.579  66.959  0.00  0.00    +0.188 C 
ATOM     24  O   UNL     1     -10.305  17.705  67.149  0.00  0.00    -0.220 OA
BRANCH  23  25
ATOM     25  C   UNL     1      -9.522  16.010  68.501  0.00  0.00    +0.107 C 
BRANCH  25  27
ATOM     26  C   UNL     1     -11.311  14.744  67.917  0.00  0.00    +0.137 C 
ATOM     27  N   UNL     1      -9.755  14.623  68.282  0.00  0.00    -0.264 NA
ATOM     28  C   UNL     1      -9.295  14.243  67.021  0.00  0.00    +0.072 C 
ATOM     29  C   UNL     1      -9.419  12.629  66.825  0.00  0.00    +0.016 C 
ATOM     30  C   UNL     1     -11.139  12.648  66.638  0.00  0.00    +0.003 C 
ATOM     31  C   UNL     1     -11.361  11.063  66.977  0.00  0.00    +0.000 C 
ATOM     32  C   UNL     1     -10.078  10.357  67.047  0.00  0.00    +0.000 C 
ATOM     33  C   UNL     1      -9.498  10.718  68.414  0.00  0.00    +0.000 C 
ATOM     34  C   UNL     1      -9.403  12.232  68.417  0.00  0.00    +0.001 C 
ATOM     35  C   UNL     1     -11.513  13.102  68.163  0.00  0.00    +0.025 C 
BRANCH  26  37
ATOM     36  N   UNL     1     -12.091  14.230  70.357  0.00  0.00    -0.208 NA
ATOM     37  C   UNL     1     -11.675  15.175  69.451  0.00  0.00    +0.256 C 
ATOM     38  O   UNL     1     -12.285  16.291  69.461  0.00  0.00    -0.272 OA
BRANCH  36  40
ATOM     39  C   UNL     1     -13.779  15.218  71.322  0.00  0.00    +0.022 C 
ATOM     40  C   UNL     1     -12.899  14.599  71.518  0.00  0.00    +0.079 C 
ATOM     41  C   UNL     1     -11.896  15.230  72.480  0.00  0.00    +0.022 C 
ATOM     42  C   UNL     1     -13.253  13.259  72.165  0.00  0.00    +0.022 C 
ENDBRANCH  36  40
ENDBRANCH  26  37
ENDBRANCH  25  27
ENDBRANCH  23  25
ENDBRANCH   1  23
BRANCH   1  43
ATOM     43  C   UNL     1      -8.063  18.610  66.148  0.00  0.00    +0.051 C 
BRANCH  43  44
ATOM     44  C   UNL     1      -7.123  19.692  66.515  0.00  0.00    -0.020 A 
ATOM     45  C   UNL     1      -6.169  20.213  65.677  0.00  0.00    -0.004 A 
ATOM     46  C   UNL     1      -5.010  20.830  66.122  0.00  0.00    -0.000 A 
ATOM     47  C   UNL     1      -4.894  20.902  67.505  0.00  0.00    -0.000 A 
ATOM     48  C   UNL     1      -6.005  20.834  68.316  0.00  0.00    -0.000 A 
ATOM     49  C   UNL     1      -7.119  20.211  67.799  0.00  0.00    -0.004 A 
ENDBRANCH  43  44
ENDBRANCH   1  43
TORSDOF 13
ENDMDL
MODEL 8
REMARK VINA RESULT:      -6.7      2.269      6.061
REMARK  Name = 
REMARK  13 active torsions:
REMARK  status: ('A' for Active; 'I' for Inactive)
REMARK    1  A    between atoms: C_2  and  N_5
REMARK    2  A    between atoms: C_6  and  C_8
REMARK    3  A    between atoms: N_17  and  C_18
REMARK    4  A    between atoms: C_18  and  C_19
REMARK    5  A    between atoms: C_19  and  C_21
REMARK    6  A    between atoms: C_21  and  C_22
REMARK    7  A    between atoms: C_21  and  N_29
REMARK    8  A    between atoms: C_22  and  C_23
REMARK    9  A    between atoms: C_30  and  C_32
REMARK   10  A    between atoms: C_32  and  C_33
REMARK   11  A    between atoms: C_32  and  N_37
REMARK   12  A    between atoms: C_33  and  C_34
REMARK   13  A    between atoms: C_38  and  C_40
REMARK                            x       y       z     vdW  Elec       q    Type
REMARK                         _______ _______ _______ _____ _____    ______ ____
ROOT
ATOM      1  C   UNL     1      -9.345  12.036  67.140  0.00  0.00    +0.131 C 
ENDROOT
BRANCH   1   2
ATOM      2  N   UNL     1     -10.222  13.286  66.759  0.00  0.00    -0.203 NA
ATOM      3  C   UNL     1     -11.583  13.364  67.054  0.00  0.00    +0.262 C 
ATOM      4  O   UNL     1     -12.132  12.302  66.624  0.00  0.00    -0.271 OA
BRANCH   3   5
ATOM      5  C   UNL     1     -12.026  13.773  68.585  0.00  0.00    +0.182 C 
BRANCH   5   6
ATOM      6  N   UNL     1     -11.363  12.519  69.322  0.00  0.00    -0.192 NA
ATOM      7  C   UNL     1     -12.037  11.915  70.341  0.00  0.00    +0.283 C 
ATOM      8  O   UNL     1     -12.423  12.702  71.225  0.00  0.00    -0.267 OA
BRANCH   7   9
ATOM      9  C   UNL     1     -12.178  10.488  70.658  0.00  0.00    +0.136 A 
ATOM     10  N   UNL     1     -11.043   9.965  71.195  0.00  0.00    -0.241 NA
ATOM     11  C   UNL     1     -10.935   8.632  71.413  0.00  0.00    +0.081 A 
ATOM     12  C   UNL     1     -12.097   7.890  71.379  0.00  0.00    +0.018 A 
ATOM     13  C   UNL     1     -12.023   6.538  71.094  0.00  0.00    +0.001 A 
ATOM     14  C   UNL     1     -10.875   6.055  70.473  0.00  0.00    +0.000 A 
ATOM     15  C   UNL     1      -9.674   6.682  70.677  0.00  0.00    +0.002 A 
ATOM     16  C   UNL     1     -13.282   8.591  71.468  0.00  0.00    +0.003 A 
ATOM     17  C   UNL     1      -9.737   7.954  71.233  0.00  0.00    +0.019 A 
ATOM     18  C   UNL     1     -13.347   9.948  71.164  0.00  0.00    +0.024 A 
ENDBRANCH   7   9
ENDBRANCH   5   6
BRANCH   5  19
ATOM     19  C   UNL     1     -10.678  14.737  68.845  0.00  0.00    +0.120 C 
BRANCH  19  20
ATOM     20  C   UNL     1     -11.262  16.027  69.330  0.00  0.00    +0.263 C 
ATOM     21  O   UNL     1     -11.342  16.932  68.441  0.00  0.00    -0.272 OA
ATOM     22  N   UNL     1     -12.436  15.883  70.140  0.00  0.00    -0.088 NA
ENDBRANCH  19  20
ENDBRANCH   5  19
ENDBRANCH   3   5
ENDBRANCH   1   2
BRANCH   1  23
ATOM     23  C   UNL     1      -7.819  12.868  66.891  0.00  0.00    +0.188 C 
ATOM     24  O   UNL     1      -6.994  11.580  66.875  0.00  0.00    -0.220 OA
BRANCH  23  25
ATOM     25  C   UNL     1      -7.564  13.096  68.516  0.00  0.00    +0.107 C 
BRANCH  25  27
ATOM     26  C   UNL     1      -5.505  14.012  68.263  0.00  0.00    +0.137 C 
ATOM     27  N   UNL     1      -7.028  14.414  68.559  0.00  0.00    -0.264 NA
ATOM     28  C   UNL     1      -7.282  15.084  67.363  0.00  0.00    +0.072 C 
ATOM     29  C   UNL     1      -6.807  16.641  67.464  0.00  0.00    +0.016 C 
ATOM     30  C   UNL     1      -5.119  16.273  67.370  0.00  0.00    +0.003 C 
ATOM     31  C   UNL     1      -4.604  17.694  67.995  0.00  0.00    +0.000 C 
ATOM     32  C   UNL     1      -5.712  18.645  68.120  0.00  0.00    +0.000 C 
ATOM     33  C   UNL     1      -6.478  18.205  69.368  0.00  0.00    +0.000 C 
ATOM     34  C   UNL     1      -6.886  16.769  69.097  0.00  0.00    +0.001 C 
ATOM     35  C   UNL     1      -4.989  15.508  68.807  0.00  0.00    +0.025 C 
BRANCH  26  37
ATOM     36  N   UNL     1      -5.277  14.011  70.866  0.00  0.00    -0.208 NA
ATOM     37  C   UNL     1      -5.381  13.270  69.714  0.00  0.00    +0.256 C 
ATOM     38  O   UNL     1      -4.636  12.243  69.620  0.00  0.00    -0.272 OA
BRANCH  36  40
ATOM     39  C   UNL     1      -4.689  12.369  72.175  0.00  0.00    +0.022 C 
ATOM     40  C   UNL     1      -4.659  13.457  72.069  0.00  0.00    +0.079 C 
ATOM     41  C   UNL     1      -5.332  14.213  73.211  0.00  0.00    +0.022 C 
ATOM     42  C   UNL     1      -3.232  14.008  72.040  0.00  0.00    +0.022 C 
ENDBRANCH  36  40
ENDBRANCH  26  37
ENDBRANCH  25  27
ENDBRANCH  23  25
ENDBRANCH   1  23
BRANCH   1  43
ATOM     43  C   UNL     1      -9.362  11.336  65.647  0.00  0.00    +0.051 C 
BRANCH  43  44
ATOM     44  C   UNL     1      -9.666   9.924  65.966  0.00  0.00    -0.020 A 
ATOM     45  C   UNL     1     -10.542   9.515  66.940  0.00  0.00    -0.004 A 
ATOM     46  C   UNL     1     -10.469   8.283  67.571  0.00  0.00    -0.000 A 
ATOM     47  C   UNL     1      -9.438   7.469  67.121  0.00  0.00    -0.000 A 
ATOM     48  C   UNL     1      -8.883   7.648  65.873  0.00  0.00    -0.000 A 
ATOM     49  C   UNL     1      -9.002   8.899  65.310  0.00  0.00    -0.004 A 
ENDBRANCH  43  44
ENDBRANCH   1  43
TORSDOF 13
ENDMDL
MODEL 9
REMARK VINA RESULT:      -6.7      2.812      6.827
REMARK  Name = 
REMARK  13 active torsions:
REMARK  status: ('A' for Active; 'I' for Inactive)
REMARK    1  A    between atoms: C_2  and  N_5
REMARK    2  A    between atoms: C_6  and  C_8
REMARK    3  A    between atoms: N_17  and  C_18
REMARK    4  A    between atoms: C_18  and  C_19
REMARK    5  A    between atoms: C_19  and  C_21
REMARK    6  A    between atoms: C_21  and  C_22
REMARK    7  A    between atoms: C_21  and  N_29
REMARK    8  A    between atoms: C_22  and  C_23
REMARK    9  A    between atoms: C_30  and  C_32
REMARK   10  A    between atoms: C_32  and  C_33
REMARK   11  A    between atoms: C_32  and  N_37
REMARK   12  A    between atoms: C_33  and  C_34
REMARK   13  A    between atoms: C_38  and  C_40
REMARK                            x       y       z     vdW  Elec       q    Type
REMARK                         _______ _______ _______ _____ _____    ______ ____
ROOT
ATOM      1  C   UNL     1      -7.858  18.232  67.088  0.00  0.00    +0.131 C 
ENDROOT
BRANCH   1   2
ATOM      2  N   UNL     1      -7.066  16.980  66.557  0.00  0.00    -0.203 NA
ATOM      3  C   UNL     1      -5.825  16.605  67.072  0.00  0.00    +0.262 C 
ATOM      4  O   UNL     1      -5.076  17.631  67.056  0.00  0.00    -0.271 OA
BRANCH   3   5
ATOM      5  C   UNL     1      -5.789  15.774  68.491  0.00  0.00    +0.182 C 
BRANCH   5   6
ATOM      6  N   UNL     1      -5.467  14.337  67.867  0.00  0.00    -0.192 NA
ATOM      7  C   UNL     1      -5.832  13.218  68.554  0.00  0.00    +0.283 C 
ATOM      8  O   UNL     1      -5.441  13.204  69.737  0.00  0.00    -0.267 OA
BRANCH   7   9
ATOM      9  C   UNL     1      -6.406  11.959  68.062  0.00  0.00    +0.136 A 
ATOM     10  N   UNL     1      -7.602  11.675  68.646  0.00  0.00    -0.241 NA
ATOM     11  C   UNL     1      -8.209  10.483  68.429  0.00  0.00    +0.081 A 
ATOM     12  C   UNL     1      -7.750   9.724  67.373  0.00  0.00    +0.018 A 
ATOM     13  C   UNL     1      -7.950   8.355  67.393  0.00  0.00    +0.001 A 
ATOM     14  C   UNL     1      -8.233   7.746  68.612  0.00  0.00    +0.000 A 
ATOM     15  C   UNL     1      -8.878   8.452  69.593  0.00  0.00    +0.002 A 
ATOM     16  C   UNL     1      -6.968  10.371  66.438  0.00  0.00    +0.003 A 
ATOM     17  C   UNL     1      -8.920   9.830  69.426  0.00  0.00    +0.019 A 
ATOM     18  C   UNL     1      -6.310  11.560  66.741  0.00  0.00    +0.024 A 
ENDBRANCH   7   9
ENDBRANCH   5   6
BRANCH   5  19
ATOM     19  C   UNL     1      -4.169  16.097  68.779  0.00  0.00    +0.120 C 
BRANCH  19  20
ATOM     20  C   UNL     1      -4.193  16.884  70.053  0.00  0.00    +0.263 C 
ATOM     21  O   UNL     1      -4.469  16.198  71.086  0.00  0.00    -0.272 OA
ATOM     22  N   UNL     1      -3.092  17.788  70.215  0.00  0.00    -0.088 NA
ENDBRANCH  19  20
ENDBRANCH   5  19
ENDBRANCH   3   5
ENDBRANCH   1   2
BRANCH   1  23
ATOM     23  C   UNL     1      -9.425  17.614  66.590  0.00  0.00    +0.188 C 
ATOM     24  O   UNL     1     -10.211  18.673  67.365  0.00  0.00    -0.220 OA
BRANCH  23  25
ATOM     25  C   UNL     1      -9.507  16.531  67.845  0.00  0.00    +0.107 C 
BRANCH  25  27
ATOM     26  C   UNL     1     -11.571  15.705  67.393  0.00  0.00    +0.137 C 
ATOM     27  N   UNL     1     -10.016  15.364  67.207  0.00  0.00    -0.264 NA
ATOM     28  C   UNL     1      -9.957  15.500  65.821  0.00  0.00    +0.072 C 
ATOM     29  C   UNL     1     -10.394  14.110  65.088  0.00  0.00    +0.016 C 
ATOM     30  C   UNL     1     -12.078  14.295  65.440  0.00  0.00    +0.003 C 
ATOM     31  C   UNL     1     -12.469  12.722  65.217  0.00  0.00    +0.000 C 
ATOM     32  C   UNL     1     -11.346  11.980  64.636  0.00  0.00    +0.000 C 
ATOM     33  C   UNL     1     -10.388  11.729  65.802  0.00  0.00    +0.000 C 
ATOM     34  C   UNL     1     -10.045  13.106  66.336  0.00  0.00    +0.001 C 
ATOM     35  C   UNL     1     -11.975  14.116  67.061  0.00  0.00    +0.025 C 
BRANCH  26  37
ATOM     36  N   UNL     1     -12.014  14.396  69.610  0.00  0.00    -0.208 NA
ATOM     37  C   UNL     1     -11.460  15.501  69.011  0.00  0.00    +0.256 C 
ATOM     38  O   UNL     1     -11.611  16.615  69.605  0.00  0.00    -0.272 OA
BRANCH  36  40
ATOM     39  C   UNL     1     -11.689  14.865  71.715  0.00  0.00    +0.022 C 
ATOM     40  C   UNL     1     -12.402  14.414  71.019  0.00  0.00    +0.079 C 
ATOM     41  C   UNL     1     -12.736  12.957  71.328  0.00  0.00    +0.022 C 
ATOM     42  C   UNL     1     -13.758  15.122  71.022  0.00  0.00    +0.022 C 
ENDBRANCH  36  40
ENDBRANCH  26  37
ENDBRANCH  25  27
ENDBRANCH  23  25
ENDBRANCH   1  23
BRANCH   1  43
ATOM     43  C   UNL     1      -7.648  19.166  65.745  0.00  0.00    +0.051 C 
BRANCH  43  44
ATOM     44  C   UNL     1      -6.696  20.193  66.224  0.00  0.00    -0.020 A 
ATOM     45  C   UNL     1      -5.672  20.717  65.474  0.00  0.00    -0.004 A 
ATOM     46  C   UNL     1      -4.524  21.267  66.022  0.00  0.00    -0.000 A 
ATOM     47  C   UNL     1      -4.495  21.268  67.411  0.00  0.00    -0.000 A 
ATOM     48  C   UNL     1      -5.657  21.204  68.147  0.00  0.00    -0.000 A 
ATOM     49  C   UNL     1      -6.757  20.650  67.531  0.00  0.00    -0.004 A 
ENDBRANCH  43  44
ENDBRANCH   1  43
TORSDOF 13
ENDMDL
