MODEL 1
REMARK VINA RESULT:      -6.7      0.000      0.000
REMARK  Name = 
REMARK  3 active torsions:
REMARK  status: ('A' for Active; 'I' for Inactive)
REMARK    1  A    between atoms: O_2  and  C_3
REMARK    2  A    between atoms: C_5  and  O_6
REMARK    3  A    between atoms: C_16  and  O_17
REMARK                            x       y       z     vdW  Elec       q    Type
REMARK                         _______ _______ _______ _____ _____    ______ ____
ROOT
ATOM      1  C   UNL     1     -12.023  12.662  69.901  0.00  0.00    +0.148 A 
ATOM      2  C   UNL     1     -11.606  13.135  68.661  0.00  0.00    +0.107 A 
ATOM      3  C   UNL     1     -11.482  12.558  67.313  0.00  0.00    +0.222 C 
ATOM      4  C   UNL     1     -10.281  13.198  66.770  0.00  0.00    +0.237 C 
ATOM      5  C   UNL     1     -10.580  13.610  65.206  0.00  0.00    +0.059 C 
ATOM      6  C   UNL     1     -12.064  14.237  65.578  0.00  0.00    +0.005 C 
ATOM      7  C   UNL     1     -11.211  12.124  64.856  0.00  0.00    +0.074 C 
ATOM      8  C   UNL     1      -9.996  11.251  64.760  0.00  0.00    +0.176 C 
ATOM      9  O   UNL     1     -10.241  10.089  64.332  0.00  0.00    -0.291 OA
ATOM     10  C   UNL     1      -9.102  11.322  65.912  0.00  0.00    +0.074 C 
ATOM     11  C   UNL     1      -9.082  12.377  66.727  0.00  0.00    +0.162 C 
ATOM     12  O   UNL     1     -10.170  14.411  67.461  0.00  0.00    -0.467 OA
ATOM     13  O   UNL     1     -11.962  11.396  67.133  0.00  0.00    -0.287 OA
ATOM     14  C   UNL     1     -11.080  14.413  68.522  0.00  0.00    +0.159 A 
ATOM     15  C   UNL     1     -11.469  15.336  69.484  0.00  0.00    +0.126 A 
ATOM     16 CL   UNL     1     -10.760  16.940  69.474  0.00  0.00    -0.076 Cl
ATOM     17  C   UNL     1     -12.228  14.950  70.582  0.00  0.00    +0.155 A 
ATOM     18  C   UNL     1     -12.351  13.595  70.873  0.00  0.00    +0.075 A 
ENDROOT
BRANCH   1  20
ATOM     19  C   UNL     1     -12.522  10.535  70.995  0.00  0.00    +0.252 C 
ATOM     20  O   UNL     1     -11.866  11.313  70.161  0.00  0.00    -0.471 OA
ENDBRANCH   1  20
BRANCH  11  21
ATOM     21  O   UNL     1      -8.069  12.433  67.688  0.00  0.00    -0.472 OA
ATOM     22  C   UNL     1      -8.022  11.423  68.678  0.00  0.00    +0.252 C 
ENDBRANCH  11  21
BRANCH  17  23
ATOM     23  O   UNL     1     -13.064  15.908  71.157  0.00  0.00    -0.470 OA
ATOM     24  C   UNL     1     -13.761  15.573  72.345  0.00  0.00    +0.253 C 
ENDBRANCH  17  23
TORSDOF 3
ENDMDL
MODEL 2
REMARK VINA RESULT:      -6.5      3.621      5.920
REMARK  Name = 
REMARK  3 active torsions:
REMARK  status: ('A' for Active; 'I' for Inactive)
REMARK    1  A    between atoms: O_2  and  C_3
REMARK    2  A    between atoms: C_5  and  O_6
REMARK    3  A    between atoms: C_16  and  O_17
REMARK                            x       y       z     vdW  Elec       q    Type
REMARK                         _______ _______ _______ _____ _____    ______ ____
ROOT
ATOM      1  C   UNL     1     -11.497  14.855  68.341  0.00  0.00    +0.148 A 
ATOM      2  C   UNL     1     -10.277  15.175  67.755  0.00  0.00    +0.107 A 
ATOM      3  C   UNL     1      -9.124  16.007  68.134  0.00  0.00    +0.222 C 
ATOM      4  C   UNL     1      -8.675  16.580  66.862  0.00  0.00    +0.237 C 
ATOM      5  C   UNL     1      -7.031  16.524  66.824  0.00  0.00    +0.059 C 
ATOM      6  C   UNL     1      -6.999  14.967  67.378  0.00  0.00    +0.005 C 
ATOM      7  C   UNL     1      -6.899  17.149  68.347  0.00  0.00    +0.074 C 
ATOM      8  C   UNL     1      -7.203  18.604  68.146  0.00  0.00    +0.176 C 
ATOM      9  O   UNL     1      -6.994  19.309  69.172  0.00  0.00    -0.291 OA
ATOM     10  C   UNL     1      -8.451  18.874  67.440  0.00  0.00    +0.074 C 
ATOM     11  C   UNL     1      -9.016  17.975  66.633  0.00  0.00    +0.162 C 
ATOM     12  O   UNL     1      -9.103  15.675  65.883  0.00  0.00    -0.467 OA
ATOM     13  O   UNL     1      -9.112  16.480  69.313  0.00  0.00    -0.287 OA
ATOM     14  C   UNL     1      -9.965  14.744  66.471  0.00  0.00    +0.159 A 
ATOM     15  C   UNL     1     -10.627  13.604  66.037  0.00  0.00    +0.126 A 
ATOM     16 CL   UNL     1     -10.402  13.055  64.387  0.00  0.00    -0.076 Cl
ATOM     17  C   UNL     1     -11.633  13.025  66.801  0.00  0.00    +0.155 A 
ATOM     18  C   UNL     1     -12.177  13.748  67.857  0.00  0.00    +0.075 A 
ENDROOT
BRANCH   1  20
ATOM     19  C   UNL     1     -12.417  15.648  70.461  0.00  0.00    +0.252 C 
ATOM     20  O   UNL     1     -12.059  15.780  69.202  0.00  0.00    -0.471 OA
ENDBRANCH   1  20
BRANCH  11  21
ATOM     21  O   UNL     1     -10.105  18.390  65.863  0.00  0.00    -0.472 OA
ATOM     22  C   UNL     1     -10.489  19.752  65.915  0.00  0.00    +0.252 C 
ENDBRANCH  11  21
BRANCH  17  23
ATOM     23  O   UNL     1     -11.838  11.652  66.662  0.00  0.00    -0.470 OA
ATOM     24  C   UNL     1     -11.007  10.766  67.395  0.00  0.00    +0.253 C 
ENDBRANCH  17  23
TORSDOF 3
ENDMDL
MODEL 3
REMARK VINA RESULT:      -6.1      1.751      3.594
REMARK  Name = 
REMARK  3 active torsions:
REMARK  status: ('A' for Active; 'I' for Inactive)
REMARK    1  A    between atoms: O_2  and  C_3
REMARK    2  A    between atoms: C_5  and  O_6
REMARK    3  A    between atoms: C_16  and  O_17
REMARK                            x       y       z     vdW  Elec       q    Type
REMARK                         _______ _______ _______ _____ _____    ______ ____
ROOT
ATOM      1  C   UNL     1     -10.131  15.034  68.690  0.00  0.00    +0.148 A 
ATOM      2  C   UNL     1     -10.465  13.699  68.492  0.00  0.00    +0.107 A 
ATOM      3  C   UNL     1      -9.967  12.616  67.630  0.00  0.00    +0.222 C 
ATOM      4  C   UNL     1     -11.176  11.865  67.281  0.00  0.00    +0.237 C 
ATOM      5  C   UNL     1     -10.829  10.259  67.371  0.00  0.00    +0.059 C 
ATOM      6  C   UNL     1     -10.047  10.436  68.817  0.00  0.00    +0.005 C 
ATOM      7  C   UNL     1      -9.432  10.435  66.508  0.00  0.00    +0.074 C 
ATOM      8  C   UNL     1      -9.920  10.608  65.100  0.00  0.00    +0.176 C 
ATOM      9  O   UNL     1      -8.997  10.594  64.240  0.00  0.00    -0.291 OA
ATOM     10  C   UNL     1     -10.926  11.650  64.927  0.00  0.00    +0.074 C 
ATOM     11  C   UNL     1     -11.691  12.069  65.936  0.00  0.00    +0.162 C 
ATOM     12  O   UNL     1     -12.074  12.113  68.327  0.00  0.00    -0.467 OA
ATOM     13  O   UNL     1      -8.905  12.841  66.970  0.00  0.00    -0.287 OA
ATOM     14  C   UNL     1     -11.561  13.133  69.133  0.00  0.00    +0.159 A 
ATOM     15  C   UNL     1     -11.952  13.743  70.317  0.00  0.00    +0.126 A 
ATOM     16 CL   UNL     1     -13.401  13.187  71.133  0.00  0.00    -0.076 Cl
ATOM     17  C   UNL     1     -11.357  14.924  70.745  0.00  0.00    +0.155 A 
ATOM     18  C   UNL     1     -10.579  15.649  69.849  0.00  0.00    +0.075 A 
ENDROOT
BRANCH   1  20
ATOM     19  C   UNL     1     -10.164  16.338  66.624  0.00  0.00    +0.252 C 
ATOM     20  O   UNL     1      -9.576  15.723  67.627  0.00  0.00    -0.471 OA
ENDBRANCH   1  20
BRANCH  11  21
ATOM     21  O   UNL     1     -12.745  12.935  65.634  0.00  0.00    -0.472 OA
ATOM     22  C   UNL     1     -12.460  14.119  64.912  0.00  0.00    +0.252 C 
ENDBRANCH  11  21
BRANCH  17  23
ATOM     23  O   UNL     1     -11.324  15.167  72.118  0.00  0.00    -0.470 OA
ATOM     24  C   UNL     1     -12.108  16.229  72.637  0.00  0.00    +0.253 C 
ENDBRANCH  17  23
TORSDOF 3
ENDMDL
MODEL 4
REMARK VINA RESULT:      -5.9      3.354      5.429
REMARK  Name = 
REMARK  3 active torsions:
REMARK  status: ('A' for Active; 'I' for Inactive)
REMARK    1  A    between atoms: O_2  and  C_3
REMARK    2  A    between atoms: C_5  and  O_6
REMARK    3  A    between atoms: C_16  and  O_17
REMARK                            x       y       z     vdW  Elec       q    Type
REMARK                         _______ _______ _______ _____ _____    ______ ____
ROOT
ATOM      1  C   UNL     1      -7.537  16.529  68.015  0.00  0.00    +0.148 A 
ATOM      2  C   UNL     1      -8.873  16.398  68.378  0.00  0.00    +0.107 A 
ATOM      3  C   UNL     1      -9.734  15.282  68.800  0.00  0.00    +0.222 C 
ATOM      4  C   UNL     1     -11.034  15.600  68.202  0.00  0.00    +0.237 C 
ATOM      5  C   UNL     1     -12.204  15.279  69.312  0.00  0.00    +0.059 C 
ATOM      6  C   UNL     1     -11.361  16.024  70.524  0.00  0.00    +0.005 C 
ATOM      7  C   UNL     1     -11.563  13.800  69.673  0.00  0.00    +0.074 C 
ATOM      8  C   UNL     1     -11.959  12.960  68.496  0.00  0.00    +0.176 C 
ATOM      9  O   UNL     1     -11.708  11.732  68.644  0.00  0.00    -0.291 OA
ATOM     10  C   UNL     1     -11.604  13.523  67.197  0.00  0.00    +0.074 C 
ATOM     11  C   UNL     1     -11.402  14.830  67.025  0.00  0.00    +0.162 C 
ATOM     12  O   UNL     1     -11.034  16.993  68.050  0.00  0.00    -0.467 OA
ATOM     13  O   UNL     1      -9.170  14.166  69.025  0.00  0.00    -0.287 OA
ATOM     14  C   UNL     1      -9.746  17.476  68.298  0.00  0.00    +0.159 A 
ATOM     15  C   UNL     1      -9.163  18.734  68.368  0.00  0.00    +0.126 A 
ATOM     16 CL   UNL     1     -10.162  20.158  68.145  0.00  0.00    -0.076 Cl
ATOM     17  C   UNL     1      -7.782  18.884  68.381  0.00  0.00    +0.155 A 
ATOM     18  C   UNL     1      -6.984  17.800  68.031  0.00  0.00    +0.075 A 
ENDROOT
BRANCH   1  20
ATOM     19  C   UNL     1      -5.899  14.722  67.883  0.00  0.00    +0.252 C 
ATOM     20  O   UNL     1      -6.915  15.434  67.446  0.00  0.00    -0.471 OA
ENDBRANCH   1  20
BRANCH  11  21
ATOM     21  O   UNL     1     -11.248  15.294  65.716  0.00  0.00    -0.472 OA
ATOM     22  C   UNL     1     -11.952  14.636  64.679  0.00  0.00    +0.252 C 
ENDBRANCH  11  21
BRANCH  17  23
ATOM     23  O   UNL     1      -7.263  20.008  69.024  0.00  0.00    -0.470 OA
ATOM     24  C   UNL     1      -6.139  19.843  69.873  0.00  0.00    +0.253 C 
ENDBRANCH  17  23
TORSDOF 3
ENDMDL
MODEL 5
REMARK VINA RESULT:      -5.8      5.986      7.954
REMARK  Name = 
REMARK  3 active torsions:
REMARK  status: ('A' for Active; 'I' for Inactive)
REMARK    1  A    between atoms: O_2  and  C_3
REMARK    2  A    between atoms: C_5  and  O_6
REMARK    3  A    between atoms: C_16  and  O_17
REMARK                            x       y       z     vdW  Elec       q    Type
REMARK                         _______ _______ _______ _____ _____    ______ ____
ROOT
ATOM      1  C   UNL     1      -6.418  20.173  66.586  0.00  0.00    +0.148 A 
ATOM      2  C   UNL     1      -6.902  19.060  67.264  0.00  0.00    +0.107 A 
ATOM      3  C   UNL     1      -7.468  17.761  66.867  0.00  0.00    +0.222 C 
ATOM      4  C   UNL     1      -8.489  17.500  67.885  0.00  0.00    +0.237 C 
ATOM      5  C   UNL     1      -8.394  15.915  68.315  0.00  0.00    +0.059 C 
ATOM      6  C   UNL     1      -6.745  15.969  68.426  0.00  0.00    +0.005 C 
ATOM      7  C   UNL     1      -8.346  15.413  66.742  0.00  0.00    +0.074 C 
ATOM      8  C   UNL     1      -9.768  15.567  66.292  0.00  0.00    +0.176 C 
ATOM      9  O   UNL     1      -9.993  15.078  65.150  0.00  0.00    -0.291 OA
ATOM     10  C   UNL     1     -10.345  16.885  66.536  0.00  0.00    +0.074 C 
ATOM     11  C   UNL     1      -9.869  17.702  67.475  0.00  0.00    +0.162 C 
ATOM     12  O   UNL     1      -8.071  18.219  69.013  0.00  0.00    -0.467 OA
ATOM     13  O   UNL     1      -7.425  17.462  65.632  0.00  0.00    -0.287 OA
ATOM     14  C   UNL     1      -7.014  19.059  68.649  0.00  0.00    +0.159 A 
ATOM     15  C   UNL     1      -6.171  19.929  69.326  0.00  0.00    +0.126 A 
ATOM     16 CL   UNL     1      -6.325  20.098  71.065  0.00  0.00    -0.076 Cl
ATOM     17  C   UNL     1      -5.369  20.831  68.637  0.00  0.00    +0.155 A 
ATOM     18  C   UNL     1      -5.625  21.066  67.290  0.00  0.00    +0.075 A 
ENDROOT
BRANCH   1  20
ATOM     19  C   UNL     1      -6.321  20.575  64.178  0.00  0.00    +0.252 C 
ATOM     20  O   UNL     1      -6.937  20.438  65.332  0.00  0.00    -0.471 OA
ENDBRANCH   1  20
BRANCH  11  21
ATOM     21  O   UNL     1     -10.599  18.860  67.757  0.00  0.00    -0.472 OA
ATOM     22  C   UNL     1     -10.491  19.959  66.872  0.00  0.00    +0.252 C 
ENDBRANCH  11  21
BRANCH  17  23
ATOM     23  O   UNL     1      -4.178  21.228  69.243  0.00  0.00    -0.470 OA
ATOM     24  C   UNL     1      -3.085  20.324  69.243  0.00  0.00    +0.253 C 
ENDBRANCH  17  23
TORSDOF 3
ENDMDL
MODEL 6
REMARK VINA RESULT:      -5.8      4.250      5.912
REMARK  Name = 
REMARK  3 active torsions:
REMARK  status: ('A' for Active; 'I' for Inactive)
REMARK    1  A    between atoms: O_2  and  C_3
REMARK    2  A    between atoms: C_5  and  O_6
REMARK    3  A    between atoms: C_16  and  O_17
REMARK                            x       y       z     vdW  Elec       q    Type
REMARK                         _______ _______ _______ _____ _____    ______ ____
ROOT
ATOM      1  C   UNL     1      -9.086  14.831  67.661  0.00  0.00    +0.148 A 
ATOM      2  C   UNL     1      -9.314  16.195  67.796  0.00  0.00    +0.107 A 
ATOM      3  C   UNL     1      -8.925  17.397  67.041  0.00  0.00    +0.222 C 
ATOM      4  C   UNL     1      -8.722  18.411  68.080  0.00  0.00    +0.237 C 
ATOM      5  C   UNL     1      -9.384  19.823  67.558  0.00  0.00    +0.059 C 
ATOM      6  C   UNL     1     -10.761  19.070  67.038  0.00  0.00    +0.005 C 
ATOM      7  C   UNL     1      -8.667  19.700  66.076  0.00  0.00    +0.074 C 
ATOM      8  C   UNL     1      -7.240  20.066  66.356  0.00  0.00    +0.176 C 
ATOM      9  O   UNL     1      -6.538  20.198  65.314  0.00  0.00    -0.291 OA
ATOM     10  C   UNL     1      -6.619  19.315  67.442  0.00  0.00    +0.074 C 
ATOM     11  C   UNL     1      -7.340  18.731  68.399  0.00  0.00    +0.162 C 
ATOM     12  O   UNL     1      -9.521  17.997  69.154  0.00  0.00    -0.467 OA
ATOM     13  O   UNL     1      -8.346  17.219  65.924  0.00  0.00    -0.287 OA
ATOM     14  C   UNL     1      -9.987  16.703  68.900  0.00  0.00    +0.159 A 
ATOM     15  C   UNL     1     -10.847  15.824  69.543  0.00  0.00    +0.126 A 
ATOM     16 CL   UNL     1     -11.643  16.326  71.023  0.00  0.00    -0.076 Cl
ATOM     17  C   UNL     1     -10.914  14.486  69.171  0.00  0.00    +0.155 A 
ATOM     18  C   UNL     1      -9.915  13.964  68.357  0.00  0.00    +0.075 A 
ENDROOT
BRANCH   1  20
ATOM     19  C   UNL     1      -6.819  13.927  67.550  0.00  0.00    +0.252 C 
ATOM     20  O   UNL     1      -7.919  14.432  67.035  0.00  0.00    -0.471 OA
ENDBRANCH   1  20
BRANCH  11  21
ATOM     21  O   UNL     1      -6.653  18.194  69.491  0.00  0.00    -0.472 OA
ATOM     22  C   UNL     1      -5.850  17.047  69.285  0.00  0.00    +0.252 C 
ENDBRANCH  11  21
BRANCH  17  23
ATOM     23  O   UNL     1     -12.121  13.819  69.382  0.00  0.00    -0.470 OA
ATOM     24  C   UNL     1     -12.112  12.638  70.167  0.00  0.00    +0.253 C 
ENDBRANCH  17  23
TORSDOF 3
ENDMDL
MODEL 7
REMARK VINA RESULT:      -5.8      4.203      6.213
REMARK  Name = 
REMARK  3 active torsions:
REMARK  status: ('A' for Active; 'I' for Inactive)
REMARK    1  A    between atoms: O_2  and  C_3
REMARK    2  A    between atoms: C_5  and  O_6
REMARK    3  A    between atoms: C_16  and  O_17
REMARK                            x       y       z     vdW  Elec       q    Type
REMARK                         _______ _______ _______ _____ _____    ______ ____
ROOT
ATOM      1  C   UNL     1      -8.429  18.499  66.556  0.00  0.00    +0.148 A 
ATOM      2  C   UNL     1      -8.453  17.233  67.131  0.00  0.00    +0.107 A 
ATOM      3  C   UNL     1      -9.123  15.960  66.823  0.00  0.00    +0.222 C 
ATOM      4  C   UNL     1      -9.428  15.399  68.142  0.00  0.00    +0.237 C 
ATOM      5  C   UNL     1      -9.090  13.789  68.108  0.00  0.00    +0.059 C 
ATOM      6  C   UNL     1      -7.643  14.035  67.346  0.00  0.00    +0.005 C 
ATOM      7  C   UNL     1      -9.891  13.575  66.679  0.00  0.00    +0.074 C 
ATOM      8  C   UNL     1     -11.334  13.620  67.087  0.00  0.00    +0.176 C 
ATOM      9  O   UNL     1     -12.131  13.308  66.159  0.00  0.00    -0.291 OA
ATOM     10  C   UNL     1     -11.709  14.791  67.872  0.00  0.00    +0.074 C 
ATOM     11  C   UNL     1     -10.814  15.490  68.571  0.00  0.00    +0.162 C 
ATOM     12  O   UNL     1      -8.479  15.962  69.006  0.00  0.00    -0.467 OA
ATOM     13  O   UNL     1      -9.748  15.885  65.720  0.00  0.00    -0.287 OA
ATOM     14  C   UNL     1      -7.800  16.980  68.331  0.00  0.00    +0.159 A 
ATOM     15  C   UNL     1      -6.738  17.823  68.633  0.00  0.00    +0.126 A 
ATOM     16 CL   UNL     1      -5.932  17.670  70.183  0.00  0.00    -0.076 Cl
ATOM     17  C   UNL     1      -6.450  18.925  67.837  0.00  0.00    +0.155 A 
ATOM     18  C   UNL     1      -7.396  19.353  66.912  0.00  0.00    +0.075 A 
ENDROOT
BRANCH   1  20
ATOM     19  C   UNL     1     -10.550  19.669  66.232  0.00  0.00    +0.252 C 
ATOM     20  O   UNL     1      -9.547  18.906  65.852  0.00  0.00    -0.471 OA
ENDBRANCH   1  20
BRANCH  11  21
ATOM     21  O   UNL     1     -11.295  16.478  69.434  0.00  0.00    -0.472 OA
ATOM     22  C   UNL     1     -11.610  16.117  70.766  0.00  0.00    +0.252 C 
ENDBRANCH  11  21
BRANCH  17  23
ATOM     23  O   UNL     1      -5.126  19.362  67.797  0.00  0.00    -0.470 OA
ATOM     24  C   UNL     1      -4.827  20.661  68.280  0.00  0.00    +0.253 C 
ENDBRANCH  17  23
TORSDOF 3
ENDMDL
MODEL 8
REMARK VINA RESULT:      -5.8      2.586      3.728
REMARK  Name = 
REMARK  3 active torsions:
REMARK  status: ('A' for Active; 'I' for Inactive)
REMARK    1  A    between atoms: O_2  and  C_3
REMARK    2  A    between atoms: C_5  and  O_6
REMARK    3  A    between atoms: C_16  and  O_17
REMARK                            x       y       z     vdW  Elec       q    Type
REMARK                         _______ _______ _______ _____ _____    ______ ____
ROOT
ATOM      1  C   UNL     1     -10.456  16.462  69.037  0.00  0.00    +0.148 A 
ATOM      2  C   UNL     1     -10.216  15.601  67.972  0.00  0.00    +0.107 A 
ATOM      3  C   UNL     1     -10.747  14.296  67.547  0.00  0.00    +0.222 C 
ATOM      4  C   UNL     1      -9.582  13.618  66.970  0.00  0.00    +0.237 C 
ATOM      5  C   UNL     1     -10.060  12.856  65.593  0.00  0.00    +0.059 C 
ATOM      6  C   UNL     1     -10.911  14.175  65.071  0.00  0.00    +0.005 C 
ATOM      7  C   UNL     1     -11.385  12.197  66.327  0.00  0.00    +0.074 C 
ATOM      8  C   UNL     1     -10.801  11.090  67.154  0.00  0.00    +0.176 C 
ATOM      9  O   UNL     1     -11.670  10.340  67.678  0.00  0.00    -0.291 OA
ATOM     10  C   UNL     1      -9.708  11.496  68.030  0.00  0.00    +0.074 C 
ATOM     11  C   UNL     1      -8.974  12.583  67.789  0.00  0.00    +0.162 C 
ATOM     12  O   UNL     1      -8.731  14.649  66.551  0.00  0.00    -0.467 OA
ATOM     13  O   UNL     1     -11.747  13.840  68.184  0.00  0.00    -0.287 OA
ATOM     14  C   UNL     1      -9.209  15.864  67.051  0.00  0.00    +0.159 A 
ATOM     15  C   UNL     1      -8.842  17.196  66.918  0.00  0.00    +0.126 A 
ATOM     16 CL   UNL     1      -7.493  17.617  65.880  0.00  0.00    -0.076 Cl
ATOM     17  C   UNL     1      -9.366  18.171  67.758  0.00  0.00    +0.155 A 
ATOM     18  C   UNL     1     -10.030  17.776  68.915  0.00  0.00    +0.075 A 
ENDROOT
BRANCH   1  20
ATOM     19  C   UNL     1     -12.065  15.990  70.813  0.00  0.00    +0.252 C 
ATOM     20  O   UNL     1     -10.890  15.908  70.227  0.00  0.00    -0.471 OA
ENDBRANCH   1  20
BRANCH  11  21
ATOM     21  O   UNL     1      -7.838  12.786  68.578  0.00  0.00    -0.472 OA
ATOM     22  C   UNL     1      -7.019  11.672  68.881  0.00  0.00    +0.252 C 
ENDBRANCH  11  21
BRANCH  17  23
ATOM     23  O   UNL     1      -9.462  19.469  67.257  0.00  0.00    -0.470 OA
ATOM     24  C   UNL     1     -10.434  19.741  66.261  0.00  0.00    +0.253 C 
ENDBRANCH  17  23
TORSDOF 3
ENDMDL
MODEL 9
REMARK VINA RESULT:      -5.8      2.419      4.414
REMARK  Name = 
REMARK  3 active torsions:
REMARK  status: ('A' for Active; 'I' for Inactive)
REMARK    1  A    between atoms: O_2  and  C_3
REMARK    2  A    between atoms: C_5  and  O_6
REMARK    3  A    between atoms: C_16  and  O_17
REMARK                            x       y       z     vdW  Elec       q    Type
REMARK                         _______ _______ _______ _____ _____    ______ ____
ROOT
ATOM      1  C   UNL     1     -10.769  14.021  64.938  0.00  0.00    +0.148 A 
ATOM      2  C   UNL     1     -10.037  13.318  65.888  0.00  0.00    +0.107 A 
ATOM      3  C   UNL     1      -9.496  11.954  65.987  0.00  0.00    +0.222 C 
ATOM      4  C   UNL     1      -9.639  11.625  67.408  0.00  0.00    +0.237 C 
ATOM      5  C   UNL     1      -8.268  10.860  67.901  0.00  0.00    +0.059 C 
ATOM      6  C   UNL     1      -7.295  11.958  67.138  0.00  0.00    +0.005 C 
ATOM      7  C   UNL     1      -8.275   9.847  66.596  0.00  0.00    +0.074 C 
ATOM      8  C   UNL     1      -9.360   8.867  66.931  0.00  0.00    +0.176 C 
ATOM      9  O   UNL     1      -9.424   7.892  66.132  0.00  0.00    -0.291 OA
ATOM     10  C   UNL     1     -10.638   9.473  67.290  0.00  0.00    +0.074 C 
ATOM     11  C   UNL     1     -10.725  10.721  67.750  0.00  0.00    +0.162 C 
ATOM     12  O   UNL     1      -9.636  12.860  68.070  0.00  0.00    -0.467 OA
ATOM     13  O   UNL     1      -9.570  11.223  64.950  0.00  0.00    -0.287 OA
ATOM     14  C   UNL     1      -9.737  13.882  67.122  0.00  0.00    +0.159 A 
ATOM     15  C   UNL     1      -9.714  15.270  67.164  0.00  0.00    +0.126 A 
ATOM     16 CL   UNL     1      -9.475  16.080  68.702  0.00  0.00    -0.076 Cl
ATOM     17  C   UNL     1     -10.101  16.027  66.065  0.00  0.00    +0.155 A 
ATOM     18  C   UNL     1     -10.787  15.405  65.027  0.00  0.00    +0.075 A 
ENDROOT
BRANCH   1  20
ATOM     19  C   UNL     1     -12.677  12.589  64.411  0.00  0.00    +0.252 C 
ATOM     20  O   UNL     1     -11.611  13.300  64.112  0.00  0.00    -0.471 OA
ENDBRANCH   1  20
BRANCH  11  21
ATOM     21  O   UNL     1     -11.963  11.147  68.238  0.00  0.00    -0.472 OA
ATOM     22  C   UNL     1     -12.236  10.989  69.618  0.00  0.00    +0.252 C 
ENDBRANCH  11  21
BRANCH  17  23
ATOM     23  O   UNL     1      -9.529  17.291  65.920  0.00  0.00    -0.470 OA
ATOM     24  C   UNL     1     -10.329  18.431  66.190  0.00  0.00    +0.253 C 
ENDBRANCH  17  23
TORSDOF 3
ENDMDL
