MODEL 1
REMARK VINA RESULT:      -7.2      0.000      0.000
REMARK  Name = 
REMARK  2 active torsions:
REMARK  status: ('A' for Active; 'I' for Inactive)
REMARK    1  A    between atoms: S_2  and  C_5
REMARK    2  A    between atoms: C_7  and  C_8
REMARK                            x       y       z     vdW  Elec       q    Type
REMARK                         _______ _______ _______ _____ _____    ______ ____
ROOT
ATOM      1  C   UNL     1     -11.599  13.905  66.031  0.00  0.00    +0.135 A 
ATOM      2  C   UNL     1     -11.114  13.234  67.134  0.00  0.00    +0.076 A 
ATOM      3 CL   UNL     1     -11.591  11.571  67.339  0.00  0.00    -0.081 Cl
ATOM      4  C   UNL     1     -10.268  13.845  68.052  0.00  0.00    +0.013 A 
ATOM      5  C   UNL     1      -9.731  15.078  67.723  0.00  0.00    +0.001 A 
ATOM      6  C   UNL     1     -10.174  15.785  66.612  0.00  0.00    +0.030 A 
ATOM      7  C   UNL     1     -11.225  15.232  65.913  0.00  0.00    +0.021 A 
ENDROOT
BRANCH   6   8
ATOM      8  C   UNL     1     -10.039  17.261  66.673  0.00  0.00    +0.242 C 
ATOM      9  C   UNL     1      -8.587  17.564  66.855  0.00  0.00    +0.033 A 
ATOM     10  C   UNL     1      -8.437  18.615  67.735  0.00  0.00    +0.055 A 
ATOM     11  C   UNL     1      -7.360  19.470  67.547  0.00  0.00    +0.004 A 
ATOM     12  C   UNL     1      -6.392  19.221  66.601  0.00  0.00    +0.000 A 
ATOM     13  C   UNL     1      -6.338  17.944  66.067  0.00  0.00    -0.000 A 
ATOM     14  C   UNL     1      -9.711  18.731  68.425  0.00  0.00    +0.267 C 
ATOM     15  O   UNL     1      -9.972  19.654  69.242  0.00  0.00    -0.268 OA
ATOM     16  C   UNL     1      -7.508  17.224  66.064  0.00  0.00    +0.000 A 
ATOM     17  N   UNL     1     -10.628  17.800  67.872  0.00  0.00    -0.167 NA
ATOM     18  O   UNL     1     -10.522  17.886  65.519  0.00  0.00    -0.194 OA
ENDBRANCH   6   8
BRANCH   1  20
ATOM     19  N   UNL     1     -12.996  12.486  64.808  0.00  0.00    +0.039 NA
ATOM     20  S   UNL     1     -12.217  13.048  64.619  0.00  0.00    +0.094 S 
ATOM     21  O   UNL     1     -11.038  12.279  64.055  0.00  0.00    -0.150 OA
ATOM     22  O   UNL     1     -12.496  14.123  63.589  0.00  0.00    -0.150 OA
ENDBRANCH   1  20
TORSDOF 2
ENDMDL
MODEL 2
REMARK VINA RESULT:      -7.2      4.982      6.903
REMARK  Name = 
REMARK  2 active torsions:
REMARK  status: ('A' for Active; 'I' for Inactive)
REMARK    1  A    between atoms: S_2  and  C_5
REMARK    2  A    between atoms: C_7  and  C_8
REMARK                            x       y       z     vdW  Elec       q    Type
REMARK                         _______ _______ _______ _____ _____    ______ ____
ROOT
ATOM      1  C   UNL     1     -12.019  13.846  70.373  0.00  0.00    +0.135 A 
ATOM      2  C   UNL     1     -12.567  12.736  70.981  0.00  0.00    +0.076 A 
ATOM      3 CL   UNL     1     -13.465  12.984  72.453  0.00  0.00    -0.081 Cl
ATOM      4  C   UNL     1     -12.424  11.461  70.447  0.00  0.00    +0.013 A 
ATOM      5  C   UNL     1     -11.913  11.344  69.166  0.00  0.00    +0.001 A 
ATOM      6  C   UNL     1     -11.367  12.437  68.504  0.00  0.00    +0.030 A 
ATOM      7  C   UNL     1     -11.289  13.611  69.222  0.00  0.00    +0.021 A 
ENDROOT
BRANCH   6   8
ATOM      8  C   UNL     1     -10.335  12.141  67.482  0.00  0.00    +0.242 C 
ATOM      9  C   UNL     1     -11.052  11.810  66.213  0.00  0.00    +0.033 A 
ATOM     10  C   UNL     1     -10.412  10.771  65.571  0.00  0.00    +0.055 A 
ATOM     11  C   UNL     1     -10.440  10.748  64.185  0.00  0.00    +0.004 A 
ATOM     12  C   UNL     1     -11.185  11.650  63.458  0.00  0.00    +0.000 A 
ATOM     13  C   UNL     1     -12.154  12.369  64.140  0.00  0.00    -0.000 A 
ATOM     14  C   UNL     1      -9.553  10.164  66.575  0.00  0.00    +0.267 C 
ATOM     15  O   UNL     1      -8.741   9.235  66.318  0.00  0.00    -0.268 OA
ATOM     16  C   UNL     1     -11.949  12.565  65.483  0.00  0.00    +0.000 A 
ATOM     17  N   UNL     1      -9.632  10.918  67.775  0.00  0.00    -0.167 NA
ATOM     18  O   UNL     1      -9.464  13.216  67.279  0.00  0.00    -0.194 OA
ENDBRANCH   6   8
BRANCH   1  20
ATOM     19  N   UNL     1     -13.564  15.521  70.890  0.00  0.00    +0.039 NA
ATOM     20  S   UNL     1     -12.603  15.475  70.714  0.00  0.00    +0.094 S 
ATOM     21  O   UNL     1     -12.160  16.326  69.541  0.00  0.00    -0.150 OA
ATOM     22  O   UNL     1     -11.763  15.965  71.875  0.00  0.00    -0.150 OA
ENDBRANCH   1  20
TORSDOF 2
ENDMDL
MODEL 3
REMARK VINA RESULT:      -7.2      2.875      6.209
REMARK  Name = 
REMARK  2 active torsions:
REMARK  status: ('A' for Active; 'I' for Inactive)
REMARK    1  A    between atoms: S_2  and  C_5
REMARK    2  A    between atoms: C_7  and  C_8
REMARK                            x       y       z     vdW  Elec       q    Type
REMARK                         _______ _______ _______ _____ _____    ______ ____
ROOT
ATOM      1  C   UNL     1      -9.888  16.281  66.905  0.00  0.00    +0.135 A 
ATOM      2  C   UNL     1      -9.282  16.087  68.128  0.00  0.00    +0.076 A 
ATOM      3 CL   UNL     1      -8.276  17.369  68.741  0.00  0.00    -0.081 Cl
ATOM      4  C   UNL     1      -9.466  14.921  68.861  0.00  0.00    +0.013 A 
ATOM      5  C   UNL     1     -10.453  14.041  68.451  0.00  0.00    +0.001 A 
ATOM      6  C   UNL     1     -11.105  14.205  67.235  0.00  0.00    +0.030 A 
ATOM      7  C   UNL     1     -10.658  15.233  66.434  0.00  0.00    +0.021 A 
ENDROOT
BRANCH   6   8
ATOM      8  C   UNL     1     -11.643  12.975  66.605  0.00  0.00    +0.242 C 
ATOM      9  C   UNL     1     -10.521  12.337  65.851  0.00  0.00    +0.033 A 
ATOM     10  C   UNL     1     -10.988  11.833  64.655  0.00  0.00    +0.055 A 
ATOM     11  C   UNL     1     -10.382  10.691  64.152  0.00  0.00    +0.004 A 
ATOM     12  C   UNL     1      -9.267  10.140  64.741  0.00  0.00    +0.000 A 
ATOM     13  C   UNL     1      -8.575  10.925  65.649  0.00  0.00    -0.000 A 
ATOM     14  C   UNL     1     -12.275  12.473  64.439  0.00  0.00    +0.267 C 
ATOM     15  O   UNL     1     -13.040  12.180  63.482  0.00  0.00    -0.268 OA
ATOM     16  C   UNL     1      -9.292  11.897  66.302  0.00  0.00    +0.000 A 
ATOM     17  N   UNL     1     -12.589  13.281  65.563  0.00  0.00    -0.167 NA
ATOM     18  O   UNL     1     -12.163  12.080  67.545  0.00  0.00    -0.194 OA
ENDBRANCH   6   8
BRANCH   1  20
ATOM     19  N   UNL     1      -9.260  18.351  66.020  0.00  0.00    +0.039 NA
ATOM     20  S   UNL     1     -10.101  17.892  66.219  0.00  0.00    +0.094 S 
ATOM     21  O   UNL     1     -10.984  18.643  67.196  0.00  0.00    -0.150 OA
ATOM     22  O   UNL     1     -10.974  17.694  64.997  0.00  0.00    -0.150 OA
ENDBRANCH   1  20
TORSDOF 2
ENDMDL
MODEL 4
REMARK VINA RESULT:      -7.0      3.664      4.781
REMARK  Name = 
REMARK  2 active torsions:
REMARK  status: ('A' for Active; 'I' for Inactive)
REMARK    1  A    between atoms: S_2  and  C_5
REMARK    2  A    between atoms: C_7  and  C_8
REMARK                            x       y       z     vdW  Elec       q    Type
REMARK                         _______ _______ _______ _____ _____    ______ ____
ROOT
ATOM      1  C   UNL     1     -12.050  14.833  71.202  0.00  0.00    +0.135 A 
ATOM      2  C   UNL     1     -12.340  13.588  70.683  0.00  0.00    +0.076 A 
ATOM      3 CL   UNL     1     -13.043  12.411  71.757  0.00  0.00    -0.081 Cl
ATOM      4  C   UNL     1     -12.094  13.273  69.352  0.00  0.00    +0.013 A 
ATOM      5  C   UNL     1     -11.763  14.303  68.489  0.00  0.00    +0.001 A 
ATOM      6  C   UNL     1     -11.480  15.578  68.962  0.00  0.00    +0.030 A 
ATOM      7  C   UNL     1     -11.468  15.735  70.331  0.00  0.00    +0.021 A 
ENDROOT
BRANCH   6   8
ATOM      8  C   UNL     1     -10.574  16.405  68.128  0.00  0.00    +0.242 C 
ATOM      9  C   UNL     1      -9.241  16.420  68.806  0.00  0.00    +0.033 A 
ATOM     10  C   UNL     1      -8.682  17.677  68.710  0.00  0.00    +0.055 A 
ATOM     11  C   UNL     1      -7.301  17.768  68.630  0.00  0.00    +0.004 A 
ATOM     12  C   UNL     1      -6.490  16.664  68.769  0.00  0.00    +0.000 A 
ATOM     13  C   UNL     1      -7.058  15.523  69.310  0.00  0.00    -0.000 A 
ATOM     14  C   UNL     1      -9.777  18.563  68.350  0.00  0.00    +0.267 C 
ATOM     15  O   UNL     1      -9.617  19.784  68.084  0.00  0.00    -0.268 OA
ATOM     16  C   UNL     1      -8.414  15.369  69.149  0.00  0.00    +0.000 A 
ATOM     17  N   UNL     1     -10.953  17.794  68.147  0.00  0.00    -0.167 NA
ATOM     18  O   UNL     1     -10.448  15.908  66.827  0.00  0.00    -0.194 OA
ENDBRANCH   6   8
BRANCH   1  20
ATOM     19  N   UNL     1     -12.811  14.765  73.411  0.00  0.00    +0.039 NA
ATOM     20  S   UNL     1     -12.806  15.420  72.683  0.00  0.00    +0.094 S 
ATOM     21  O   UNL     1     -14.190  15.891  72.282  0.00  0.00    -0.150 OA
ATOM     22  O   UNL     1     -12.062  16.691  73.035  0.00  0.00    -0.150 OA
ENDBRANCH   1  20
TORSDOF 2
ENDMDL
MODEL 5
REMARK VINA RESULT:      -6.9      3.657      6.654
REMARK  Name = 
REMARK  2 active torsions:
REMARK  status: ('A' for Active; 'I' for Inactive)
REMARK    1  A    between atoms: S_2  and  C_5
REMARK    2  A    between atoms: C_7  and  C_8
REMARK                            x       y       z     vdW  Elec       q    Type
REMARK                         _______ _______ _______ _____ _____    ______ ____
ROOT
ATOM      1  C   UNL     1     -11.610  15.000  68.991  0.00  0.00    +0.135 A 
ATOM      2  C   UNL     1     -10.807  15.916  68.343  0.00  0.00    +0.076 A 
ATOM      3 CL   UNL     1     -10.542  17.449  69.125  0.00  0.00    -0.081 Cl
ATOM      4  C   UNL     1     -10.218  15.636  67.116  0.00  0.00    +0.013 A 
ATOM      5  C   UNL     1     -10.262  14.332  66.653  0.00  0.00    +0.001 A 
ATOM      6  C   UNL     1     -11.041  13.369  67.282  0.00  0.00    +0.030 A 
ATOM      7  C   UNL     1     -11.823  13.803  68.331  0.00  0.00    +0.021 A 
ENDROOT
BRANCH   6   8
ATOM      8  C   UNL     1     -11.520  12.251  66.434  0.00  0.00    +0.242 C 
ATOM      9  C   UNL     1     -10.364  11.809  65.594  0.00  0.00    +0.033 A 
ATOM     10  C   UNL     1     -10.801  11.508  64.321  0.00  0.00    +0.055 A 
ATOM     11  C   UNL     1     -10.141  10.503  63.629  0.00  0.00    +0.004 A 
ATOM     12  C   UNL     1      -9.006   9.904  64.126  0.00  0.00    +0.000 A 
ATOM     13  C   UNL     1      -8.355  10.542  65.170  0.00  0.00    -0.000 A 
ATOM     14  C   UNL     1     -12.114  12.121  64.204  0.00  0.00    +0.267 C 
ATOM     15  O   UNL     1     -12.858  11.972  63.199  0.00  0.00    -0.268 OA
ATOM     16  C   UNL     1      -9.120  11.348  65.976  0.00  0.00    +0.000 A 
ATOM     17  N   UNL     1     -12.472  12.699  65.450  0.00  0.00    -0.167 NA
ATOM     18  O   UNL     1     -12.004  11.179  67.191  0.00  0.00    -0.194 OA
ENDBRANCH   6   8
BRANCH   1  20
ATOM     19  N   UNL     1     -11.175  15.447  71.243  0.00  0.00    +0.039 NA
ATOM     20  S   UNL     1     -11.930  15.106  70.722  0.00  0.00    +0.094 S 
ATOM     21  O   UNL     1     -12.380  13.721  71.144  0.00  0.00    -0.150 OA
ATOM     22  O   UNL     1     -13.173  15.962  70.847  0.00  0.00    -0.150 OA
ENDBRANCH   1  20
TORSDOF 2
ENDMDL
MODEL 6
REMARK VINA RESULT:      -6.9      3.169      4.570
REMARK  Name = 
REMARK  2 active torsions:
REMARK  status: ('A' for Active; 'I' for Inactive)
REMARK    1  A    between atoms: S_2  and  C_5
REMARK    2  A    between atoms: C_7  and  C_8
REMARK                            x       y       z     vdW  Elec       q    Type
REMARK                         _______ _______ _______ _____ _____    ______ ____
ROOT
ATOM      1  C   UNL     1     -10.510  12.306  65.113  0.00  0.00    +0.135 A 
ATOM      2  C   UNL     1     -11.778  12.631  64.677  0.00  0.00    +0.076 A 
ATOM      3 CL   UNL     1     -12.344  11.877  63.212  0.00  0.00    -0.081 Cl
ATOM      4  C   UNL     1     -12.589  13.517  65.375  0.00  0.00    +0.013 A 
ATOM      5  C   UNL     1     -12.193  13.901  66.645  0.00  0.00    +0.001 A 
ATOM      6  C   UNL     1     -10.933  13.583  67.135  0.00  0.00    +0.030 A 
ATOM      7  C   UNL     1     -10.080  12.942  66.263  0.00  0.00    +0.021 A 
ENDROOT
BRANCH   6   8
ATOM      8  C   UNL     1     -10.373  14.499  68.158  0.00  0.00    +0.242 C 
ATOM      9  C   UNL     1     -11.387  14.615  69.251  0.00  0.00    +0.033 A 
ATOM     10  C   UNL     1     -11.440  15.916  69.702  0.00  0.00    +0.055 A 
ATOM     11  C   UNL     1     -11.737  16.127  71.041  0.00  0.00    +0.004 A 
ATOM     12  C   UNL     1     -12.096  15.094  71.877  0.00  0.00    +0.000 A 
ATOM     13  C   UNL     1     -12.469  13.898  71.285  0.00  0.00    -0.000 A 
ATOM     14  C   UNL     1     -10.792  16.713  68.674  0.00  0.00    +0.267 C 
ATOM     15  O   UNL     1     -10.573  17.948  68.793  0.00  0.00    -0.268 OA
ATOM     16  C   UNL     1     -11.946  13.632  70.043  0.00  0.00    +0.000 A 
ATOM     17  N   UNL     1     -10.282  15.851  67.668  0.00  0.00    -0.167 NA
ATOM     18  O   UNL     1      -9.157  14.040  68.674  0.00  0.00    -0.194 OA
ENDBRANCH   6   8
BRANCH   1  20
ATOM     19  N   UNL     1     -10.222  10.029  64.674  0.00  0.00    +0.039 NA
ATOM     20  S   UNL     1      -9.688  10.843  64.571  0.00  0.00    +0.094 S 
ATOM     21  O   UNL     1      -8.374  10.804  65.325  0.00  0.00    -0.150 OA
ATOM     22  O   UNL     1      -9.292  11.115  63.135  0.00  0.00    -0.150 OA
ENDBRANCH   1  20
TORSDOF 2
ENDMDL
MODEL 7
REMARK VINA RESULT:      -6.8      4.029      7.232
REMARK  Name = 
REMARK  2 active torsions:
REMARK  status: ('A' for Active; 'I' for Inactive)
REMARK    1  A    between atoms: S_2  and  C_5
REMARK    2  A    between atoms: C_7  and  C_8
REMARK                            x       y       z     vdW  Elec       q    Type
REMARK                         _______ _______ _______ _____ _____    ______ ____
ROOT
ATOM      1  C   UNL     1     -11.139  13.009  65.746  0.00  0.00    +0.135 A 
ATOM      2  C   UNL     1     -10.310  14.000  66.227  0.00  0.00    +0.076 A 
ATOM      3 CL   UNL     1     -10.235  15.493  65.334  0.00  0.00    -0.081 Cl
ATOM      4  C   UNL     1      -9.562  13.832  67.387  0.00  0.00    +0.013 A 
ATOM      5  C   UNL     1      -9.834  12.734  68.184  0.00  0.00    +0.001 A 
ATOM      6  C   UNL     1     -10.677  11.718  67.750  0.00  0.00    +0.030 A 
ATOM      7  C   UNL     1     -11.155  11.827  66.463  0.00  0.00    +0.021 A 
ENDROOT
BRANCH   6   8
ATOM      8  C   UNL     1     -10.437  10.372  68.325  0.00  0.00    +0.242 C 
ATOM      9  C   UNL     1     -11.031  10.366  69.697  0.00  0.00    +0.033 A 
ATOM     10  C   UNL     1     -10.207   9.673  70.559  0.00  0.00    +0.055 A 
ATOM     11  C   UNL     1     -10.799   8.977  71.604  0.00  0.00    +0.004 A 
ATOM     12  C   UNL     1     -12.147   9.067  71.865  0.00  0.00    +0.000 A 
ATOM     13  C   UNL     1     -12.841  10.110  71.273  0.00  0.00    -0.000 A 
ATOM     14  C   UNL     1      -8.924   9.582  69.883  0.00  0.00    +0.267 C 
ATOM     15  O   UNL     1      -7.948   8.928  70.339  0.00  0.00    -0.268 OA
ATOM     16  C   UNL     1     -12.330  10.606  70.098  0.00  0.00    +0.000 A 
ATOM     17  N   UNL     1      -9.039  10.146  68.585  0.00  0.00    -0.167 NA
ATOM     18  O   UNL     1     -11.003   9.355  67.550  0.00  0.00    -0.194 OA
ENDBRANCH   6   8
BRANCH   1  20
ATOM     19  N   UNL     1     -12.153  13.705  63.759  0.00  0.00    +0.039 NA
ATOM     20  S   UNL     1     -12.454  13.362  64.624  0.00  0.00    +0.094 S 
ATOM     21  O   UNL     1     -13.382  14.307  65.361  0.00  0.00    -0.150 OA
ATOM     22  O   UNL     1     -13.239  12.072  64.511  0.00  0.00    -0.150 OA
ENDBRANCH   1  20
TORSDOF 2
ENDMDL
MODEL 8
REMARK VINA RESULT:      -6.8      1.915      2.078
REMARK  Name = 
REMARK  2 active torsions:
REMARK  status: ('A' for Active; 'I' for Inactive)
REMARK    1  A    between atoms: S_2  and  C_5
REMARK    2  A    between atoms: C_7  and  C_8
REMARK                            x       y       z     vdW  Elec       q    Type
REMARK                         _______ _______ _______ _____ _____    ______ ____
ROOT
ATOM      1  C   UNL     1     -11.315  14.001  67.928  0.00  0.00    +0.135 A 
ATOM      2  C   UNL     1     -11.515  14.281  69.263  0.00  0.00    +0.076 A 
ATOM      3 CL   UNL     1     -12.110  12.994  70.275  0.00  0.00    -0.081 Cl
ATOM      4  C   UNL     1     -11.249  15.535  69.798  0.00  0.00    +0.013 A 
ATOM      5  C   UNL     1     -10.559  16.445  69.015  0.00  0.00    +0.001 A 
ATOM      6  C   UNL     1     -10.317  16.201  67.669  0.00  0.00    +0.030 A 
ATOM      7  C   UNL     1     -10.868  15.052  67.146  0.00  0.00    +0.021 A 
ENDROOT
BRANCH   6   8
ATOM      8  C   UNL     1     -10.161  17.393  66.800  0.00  0.00    +0.242 C 
ATOM      9  C   UNL     1      -8.704  17.725  66.764  0.00  0.00    +0.033 A 
ATOM     10  C   UNL     1      -8.536  19.094  66.801  0.00  0.00    +0.055 A 
ATOM     11  C   UNL     1      -7.449  19.632  66.129  0.00  0.00    +0.004 A 
ATOM     12  C   UNL     1      -6.486  18.837  65.549  0.00  0.00    +0.000 A 
ATOM     13  C   UNL     1      -6.452  17.504  65.925  0.00  0.00    -0.000 A 
ATOM     14  C   UNL     1      -9.807  19.629  67.261  0.00  0.00    +0.267 C 
ATOM     15  O   UNL     1     -10.052  20.864  67.326  0.00  0.00    -0.268 OA
ATOM     16  C   UNL     1      -7.632  16.953  66.363  0.00  0.00    +0.000 A 
ATOM     17  N   UNL     1     -10.738  18.567  67.401  0.00  0.00    -0.167 NA
ATOM     18  O   UNL     1     -10.638  17.171  65.505  0.00  0.00    -0.194 OA
ENDBRANCH   6   8
BRANCH   1  20
ATOM     19  N   UNL     1     -11.961  11.819  67.399  0.00  0.00    +0.039 NA
ATOM     20  S   UNL     1     -11.140  12.347  67.341  0.00  0.00    +0.094 S 
ATOM     21  O   UNL     1      -9.981  11.754  68.119  0.00  0.00    -0.150 OA
ATOM     22  O   UNL     1     -10.616  12.478  65.926  0.00  0.00    -0.150 OA
ENDBRANCH   1  20
TORSDOF 2
ENDMDL
MODEL 9
REMARK VINA RESULT:      -6.7      1.842      2.208
REMARK  Name = 
REMARK  2 active torsions:
REMARK  status: ('A' for Active; 'I' for Inactive)
REMARK    1  A    between atoms: S_2  and  C_5
REMARK    2  A    between atoms: C_7  and  C_8
REMARK                            x       y       z     vdW  Elec       q    Type
REMARK                         _______ _______ _______ _____ _____    ______ ____
ROOT
ATOM      1  C   UNL     1     -11.083  13.355  66.030  0.00  0.00    +0.135 A 
ATOM      2  C   UNL     1     -10.063  12.439  66.181  0.00  0.00    +0.076 A 
ATOM      3 CL   UNL     1     -10.279  10.868  65.462  0.00  0.00    -0.081 Cl
ATOM      4  C   UNL     1      -8.896  12.747  66.870  0.00  0.00    +0.013 A 
ATOM      5  C   UNL     1      -8.671  14.070  67.213  0.00  0.00    +0.001 A 
ATOM      6  C   UNL     1      -9.661  15.033  67.063  0.00  0.00    +0.030 A 
ATOM      7  C   UNL     1     -10.892  14.584  66.637  0.00  0.00    +0.021 A 
ENDROOT
BRANCH   6   8
ATOM      8  C   UNL     1      -9.590  16.200  67.976  0.00  0.00    +0.242 C 
ATOM      9  C   UNL     1      -9.553  17.426  67.122  0.00  0.00    +0.033 A 
ATOM     10  C   UNL     1      -8.676  18.344  67.661  0.00  0.00    +0.055 A 
ATOM     11  C   UNL     1      -8.960  19.691  67.489  0.00  0.00    +0.004 A 
ATOM     12  C   UNL     1     -10.005  20.119  66.702  0.00  0.00    +0.000 A 
ATOM     13  C   UNL     1     -10.563  19.197  65.831  0.00  0.00    -0.000 A 
ATOM     14  C   UNL     1      -7.856  17.595  68.599  0.00  0.00    +0.267 C 
ATOM     15  O   UNL     1      -7.001  18.134  69.351  0.00  0.00    -0.268 OA
ATOM     16  C   UNL     1     -10.457  17.873  66.179  0.00  0.00    +0.000 A 
ATOM     17  N   UNL     1      -8.328  16.258  68.667  0.00  0.00    -0.167 NA
ATOM     18  O   UNL     1     -10.677  16.255  68.854  0.00  0.00    -0.194 OA
ENDBRANCH   6   8
BRANCH   1  20
ATOM     19  N   UNL     1     -13.015  12.562  64.982  0.00  0.00    +0.039 NA
ATOM     20  S   UNL     1     -12.299  13.192  64.763  0.00  0.00    +0.094 S 
ATOM     21  O   UNL     1     -11.536  12.827  63.505  0.00  0.00    -0.150 OA
ATOM     22  O   UNL     1     -12.801  14.598  64.507  0.00  0.00    -0.150 OA
ENDBRANCH   1  20
TORSDOF 2
ENDMDL
