MODEL 1
REMARK VINA RESULT:      -8.0      0.000      0.000
REMARK  Name = 
REMARK  18 active torsions:
REMARK  status: ('A' for Active; 'I' for Inactive)
REMARK    1  A    between atoms: C_2  and  C_4
REMARK    2  A    between atoms: C_6  and  C_7
REMARK    3  A    between atoms: C_7  and  N_8
REMARK    4  A    between atoms: N_12  and  C_13
REMARK    5  A    between atoms: C_13  and  C_14
REMARK    6  A    between atoms: C_13  and  C_46
REMARK    7  A    between atoms: N_16  and  C_17
REMARK    8  A    between atoms: C_17  and  C_18
REMARK    9  A    between atoms: C_17  and  C_25
REMARK   10  A    between atoms: C_18  and  C_19
REMARK   11  A    between atoms: C_25  and  C_26
REMARK   12  A    between atoms: C_26  and  C_28
REMARK   13  A    between atoms: C_28  and  C_29
REMARK   14  A    between atoms: C_28  and  N_36
REMARK   15  A    between atoms: C_29  and  C_30
REMARK   16  A    between atoms: C_37  and  O_39
REMARK   17  A    between atoms: O_39  and  C_40
REMARK   18  A    between atoms: C_40  and  C_41
REMARK                            x       y       z     vdW  Elec       q    Type
REMARK                         _______ _______ _______ _____ _____    ______ ____
ROOT
ATOM      1  C   UNL     1     -11.318  15.425  68.034  0.00  0.00    +0.102 C 
ENDROOT
BRANCH   1   3
ATOM      2  C   UNL     1     -11.632  13.771  66.117  0.00  0.00    +0.261 C 
ATOM      3  N   UNL     1     -11.379  13.933  67.514  0.00  0.00    -0.205 NA
ATOM      4  O   UNL     1     -12.202  14.782  65.598  0.00  0.00    -0.271 OA
BRANCH   2   5
ATOM      5  C   UNL     1     -10.350  13.278  65.252  0.00  0.00    +0.174 C 
BRANCH   5   8
ATOM      6  N   UNL     1      -9.557  10.326  67.621  0.00  0.00    -0.255 N 
ATOM      7  C   UNL     1      -9.373  11.484  66.792  0.00  0.00    +0.324 C 
ATOM      8  N   UNL     1     -10.362  11.832  65.883  0.00  0.00    -0.181 NA
ATOM      9  O   UNL     1      -8.306  12.126  66.823  0.00  0.00    -0.251 OA
ATOM     10  C   UNL     1     -10.490   9.284  67.218  0.00  0.00    +0.117 C 
BRANCH   6  11
ATOM     11  C   UNL     1      -9.336  10.562  69.036  0.00  0.00    +0.141 C 
BRANCH  11  15
ATOM     12  C   UNL     1     -11.812   9.029  71.193  0.00  0.00    +0.088 A 
ATOM     13  S   UNL     1     -12.737  10.436  70.847  0.00  0.00    -0.071 S 
ATOM     14  C   UNL     1     -11.536  11.300  69.970  0.00  0.00    +0.053 A 
ATOM     15  C   UNL     1     -10.573  10.304  69.842  0.00  0.00    +0.086 A 
ATOM     16  N   UNL     1     -10.576   9.474  70.878  0.00  0.00    -0.245 NA
BRANCH  12  18
ATOM     17  C   UNL     1     -10.878   7.522  72.917  0.00  0.00    +0.007 C 
ATOM     18  C   UNL     1     -12.134   8.072  72.300  0.00  0.00    +0.047 C 
ATOM     19  C   UNL     1     -13.003   6.967  71.746  0.00  0.00    +0.007 C 
ENDBRANCH  12  18
ENDBRANCH  11  15
ENDBRANCH   6  11
ENDBRANCH   5   8
BRANCH   5  20
ATOM     20  C   UNL     1     -11.273  12.829  63.957  0.00  0.00    +0.029 C 
ATOM     21  C   UNL     1     -12.452  12.142  64.581  0.00  0.00    +0.002 C 
ATOM     22  C   UNL     1     -10.415  11.866  63.174  0.00  0.00    +0.002 C 
ENDBRANCH   5  20
ENDBRANCH   2   5
ENDBRANCH   1   3
BRANCH   1  23
ATOM     23  C   UNL     1      -9.770  15.769  67.624  0.00  0.00    +0.057 C 
BRANCH  23  24
ATOM     24  C   UNL     1      -9.855  17.228  66.898  0.00  0.00    +0.174 C 
ATOM     25  O   UNL     1      -9.656  16.643  65.513  0.00  0.00    -0.221 OA
BRANCH  24  26
ATOM     26  C   UNL     1      -8.181  17.504  67.209  0.00  0.00    +0.133 C 
BRANCH  26  27
ATOM     27  N   UNL     1      -7.940  18.526  66.049  0.00  0.00    -0.168 NA
ATOM     28  C   UNL     1      -6.649  18.550  65.493  0.00  0.00    +0.421 C 
ATOM     29  O   UNL     1      -5.817  17.614  65.622  0.00  0.00    -0.225 OA
BRANCH  28  30
ATOM     30  O   UNL     1      -6.462  19.231  64.309  0.00  0.00    -0.428 OA
BRANCH  30  31
ATOM     31  C   UNL     1      -5.316  19.412  63.646  0.00  0.00    +0.245 C 
BRANCH  31  32
ATOM     32  C   UNL     1      -5.219  19.633  62.235  0.00  0.00    +0.071 A 
ATOM     33  S   UNL     1      -4.481  18.442  61.235  0.00  0.00    -0.065 S 
ATOM     34  C   UNL     1      -4.837  19.166  59.717  0.00  0.00    +0.134 A 
ATOM     35  N   UNL     1      -5.891  19.917  60.089  0.00  0.00    -0.235 NA
ATOM     36  C   UNL     1      -5.805  20.416  61.295  0.00  0.00    +0.105 A 
ENDBRANCH  31  32
ENDBRANCH  30  31
ENDBRANCH  28  30
ENDBRANCH  26  27
BRANCH  26  37
ATOM     37  C   UNL     1      -8.499  18.686  68.291  0.00  0.00    +0.051 C 
BRANCH  37  38
ATOM     38  C   UNL     1      -7.185  18.777  69.004  0.00  0.00    -0.020 A 
ATOM     39  C   UNL     1      -6.595  19.995  69.225  0.00  0.00    -0.004 A 
ATOM     40  C   UNL     1      -5.324  20.110  69.751  0.00  0.00    -0.000 A 
ATOM     41  C   UNL     1      -4.456  19.031  69.629  0.00  0.00    -0.000 A 
ATOM     42  C   UNL     1      -5.048  17.795  69.443  0.00  0.00    -0.000 A 
ATOM     43  C   UNL     1      -6.412  17.646  69.234  0.00  0.00    -0.004 A 
ENDBRANCH  37  38
ENDBRANCH  26  37
ENDBRANCH  24  26
ENDBRANCH  23  24
ENDBRANCH   1  23
BRANCH   1  44
ATOM     44  C   UNL     1     -10.871  14.948  69.548  0.00  0.00    +0.048 C 
BRANCH  44  45
ATOM     45  C   UNL     1     -12.007  15.373  70.429  0.00  0.00    -0.020 A 
ATOM     46  C   UNL     1     -13.157  14.604  70.577  0.00  0.00    -0.004 A 
ATOM     47  C   UNL     1     -13.857  14.569  71.779  0.00  0.00    -0.000 A 
ATOM     48  C   UNL     1     -13.189  14.945  72.939  0.00  0.00    -0.000 A 
ATOM     49  C   UNL     1     -12.193  15.904  72.792  0.00  0.00    -0.000 A 
ATOM     50  C   UNL     1     -11.768  16.223  71.504  0.00  0.00    -0.004 A 
ENDBRANCH  44  45
ENDBRANCH   1  44
TORSDOF 18
ENDMDL
MODEL 2
REMARK VINA RESULT:      -7.8      3.282      9.920
REMARK  Name = 
REMARK  18 active torsions:
REMARK  status: ('A' for Active; 'I' for Inactive)
REMARK    1  A    between atoms: C_2  and  C_4
REMARK    2  A    between atoms: C_6  and  C_7
REMARK    3  A    between atoms: C_7  and  N_8
REMARK    4  A    between atoms: N_12  and  C_13
REMARK    5  A    between atoms: C_13  and  C_14
REMARK    6  A    between atoms: C_13  and  C_46
REMARK    7  A    between atoms: N_16  and  C_17
REMARK    8  A    between atoms: C_17  and  C_18
REMARK    9  A    between atoms: C_17  and  C_25
REMARK   10  A    between atoms: C_18  and  C_19
REMARK   11  A    between atoms: C_25  and  C_26
REMARK   12  A    between atoms: C_26  and  C_28
REMARK   13  A    between atoms: C_28  and  C_29
REMARK   14  A    between atoms: C_28  and  N_36
REMARK   15  A    between atoms: C_29  and  C_30
REMARK   16  A    between atoms: C_37  and  O_39
REMARK   17  A    between atoms: O_39  and  C_40
REMARK   18  A    between atoms: C_40  and  C_41
REMARK                            x       y       z     vdW  Elec       q    Type
REMARK                         _______ _______ _______ _____ _____    ______ ____
ROOT
ATOM      1  C   UNL     1     -10.300  14.940  66.941  0.00  0.00    +0.102 C 
ENDROOT
BRANCH   1   3
ATOM      2  C   UNL     1      -9.076  17.125  66.452  0.00  0.00    +0.261 C 
ATOM      3  N   UNL     1      -8.980  15.807  66.996  0.00  0.00    -0.205 NA
ATOM      4  O   UNL     1     -10.034  17.248  65.625  0.00  0.00    -0.271 OA
BRANCH   2   5
ATOM      5  C   UNL     1      -9.063  18.313  67.558  0.00  0.00    +0.174 C 
BRANCH   5   8
ATOM      6  N   UNL     1      -5.466  18.564  68.953  0.00  0.00    -0.255 N 
ATOM      7  C   UNL     1      -6.867  18.819  68.766  0.00  0.00    +0.324 C 
ATOM      8  N   UNL     1      -7.489  18.378  67.607  0.00  0.00    -0.181 NA
ATOM      9  O   UNL     1      -7.505  19.499  69.592  0.00  0.00    -0.251 OA
ATOM     10  C   UNL     1      -4.617  18.293  67.802  0.00  0.00    +0.117 C 
BRANCH   6  11
ATOM     11  C   UNL     1      -5.132  17.961  70.230  0.00  0.00    +0.141 C 
BRANCH  11  15
ATOM     12  C   UNL     1      -5.686  14.409  69.773  0.00  0.00    +0.088 A 
ATOM     13  S   UNL     1      -4.005  14.277  70.100  0.00  0.00    -0.071 S 
ATOM     14  C   UNL     1      -3.637  15.957  70.144  0.00  0.00    +0.053 A 
ATOM     15  C   UNL     1      -4.926  16.482  70.108  0.00  0.00    +0.086 A 
ATOM     16  N   UNL     1      -5.758  15.710  69.418  0.00  0.00    -0.245 NA
BRANCH  12  18
ATOM     17  C   UNL     1      -6.146  11.979  69.799  0.00  0.00    +0.007 C 
ATOM     18  C   UNL     1      -6.510  13.303  69.187  0.00  0.00    +0.047 C 
ATOM     19  C   UNL     1      -6.307  13.290  67.690  0.00  0.00    +0.007 C 
ENDBRANCH  12  18
ENDBRANCH  11  15
ENDBRANCH   6  11
ENDBRANCH   5   8
BRANCH   5  20
ATOM     20  C   UNL     1      -9.177  19.506  66.420  0.00  0.00    +0.029 C 
ATOM     21  C   UNL     1      -7.764  19.685  65.950  0.00  0.00    +0.002 C 
ATOM     22  C   UNL     1      -9.677  20.718  67.166  0.00  0.00    +0.002 C 
ENDBRANCH   5  20
ENDBRANCH   2   5
ENDBRANCH   1   3
BRANCH   1  23
ATOM     23  C   UNL     1     -10.113  14.111  68.341  0.00  0.00    +0.057 C 
BRANCH  23  24
ATOM     24  C   UNL     1     -11.561  13.404  68.595  0.00  0.00    +0.174 C 
ATOM     25  O   UNL     1     -11.652  13.909  70.022  0.00  0.00    -0.221 OA
BRANCH  24  26
ATOM     26  C   UNL     1     -10.789  11.913  68.989  0.00  0.00    +0.133 C 
BRANCH  26  27
ATOM     27  N   UNL     1     -11.893  11.381  69.963  0.00  0.00    -0.168 NA
ATOM     28  C   UNL     1     -11.579  10.221  70.692  0.00  0.00    +0.421 C 
ATOM     29  O   UNL     1     -10.404   9.803  70.865  0.00  0.00    -0.225 OA
BRANCH  28  30
ATOM     30  O   UNL     1     -12.400   9.871  71.743  0.00  0.00    -0.428 OA
BRANCH  30  31
ATOM     31  C   UNL     1     -12.785   8.642  72.100  0.00  0.00    +0.245 C 
BRANCH  31  32
ATOM     32  C   UNL     1     -11.899   7.533  72.284  0.00  0.00    +0.071 A 
ATOM     33  S   UNL     1     -11.635   6.430  70.988  0.00  0.00    -0.065 S 
ATOM     34  C   UNL     1     -10.393   5.501  71.729  0.00  0.00    +0.134 A 
ATOM     35  N   UNL     1      -9.958   6.412  72.621  0.00  0.00    -0.235 NA
ATOM     36  C   UNL     1     -10.896   7.172  73.123  0.00  0.00    +0.105 A 
ENDBRANCH  31  32
ENDBRANCH  30  31
ENDBRANCH  28  30
ENDBRANCH  26  27
BRANCH  26  37
ATOM     37  C   UNL     1     -11.442  11.147  67.702  0.00  0.00    +0.051 C 
BRANCH  37  38
ATOM     38  C   UNL     1     -10.274  10.333  67.237  0.00  0.00    -0.020 A 
ATOM     39  C   UNL     1      -9.013  10.588  67.711  0.00  0.00    -0.004 A 
ATOM     40  C   UNL     1      -7.897   9.955  67.204  0.00  0.00    -0.000 A 
ATOM     41  C   UNL     1      -7.963   9.418  65.924  0.00  0.00    -0.000 A 
ATOM     42  C   UNL     1      -9.231   9.125  65.455  0.00  0.00    -0.000 A 
ATOM     43  C   UNL     1     -10.381   9.482  66.144  0.00  0.00    -0.004 A 
ENDBRANCH  37  38
ENDBRANCH  26  37
ENDBRANCH  24  26
ENDBRANCH  23  24
ENDBRANCH   1  23
BRANCH   1  44
ATOM     44  C   UNL     1      -9.561  13.749  66.072  0.00  0.00    +0.048 C 
BRANCH  44  45
ATOM     45  C   UNL     1     -10.481  13.499  64.916  0.00  0.00    -0.020 A 
ATOM     46  C   UNL     1     -10.240  12.499  63.979  0.00  0.00    -0.004 A 
ATOM     47  C   UNL     1     -11.282  11.810  63.367  0.00  0.00    -0.000 A 
ATOM     48  C   UNL     1     -12.525  11.812  63.990  0.00  0.00    -0.000 A 
ATOM     49  C   UNL     1     -12.839  12.944  64.734  0.00  0.00    -0.000 A 
ATOM     50  C   UNL     1     -11.823  13.856  65.008  0.00  0.00    -0.004 A 
ENDBRANCH  44  45
ENDBRANCH   1  44
TORSDOF 18
ENDMDL
MODEL 3
REMARK VINA RESULT:      -7.8      2.906      3.749
REMARK  Name = 
REMARK  18 active torsions:
REMARK  status: ('A' for Active; 'I' for Inactive)
REMARK    1  A    between atoms: C_2  and  C_4
REMARK    2  A    between atoms: C_6  and  C_7
REMARK    3  A    between atoms: C_7  and  N_8
REMARK    4  A    between atoms: N_12  and  C_13
REMARK    5  A    between atoms: C_13  and  C_14
REMARK    6  A    between atoms: C_13  and  C_46
REMARK    7  A    between atoms: N_16  and  C_17
REMARK    8  A    between atoms: C_17  and  C_18
REMARK    9  A    between atoms: C_17  and  C_25
REMARK   10  A    between atoms: C_18  and  C_19
REMARK   11  A    between atoms: C_25  and  C_26
REMARK   12  A    between atoms: C_26  and  C_28
REMARK   13  A    between atoms: C_28  and  C_29
REMARK   14  A    between atoms: C_28  and  N_36
REMARK   15  A    between atoms: C_29  and  C_30
REMARK   16  A    between atoms: C_37  and  O_39
REMARK   17  A    between atoms: O_39  and  C_40
REMARK   18  A    between atoms: C_40  and  C_41
REMARK                            x       y       z     vdW  Elec       q    Type
REMARK                         _______ _______ _______ _____ _____    ______ ____
ROOT
ATOM      1  C   UNL     1     -11.627  14.635  68.654  0.00  0.00    +0.102 C 
ENDROOT
BRANCH   1   3
ATOM      2  C   UNL     1     -10.840  12.303  67.983  0.00  0.00    +0.261 C 
ATOM      3  N   UNL     1     -10.589  13.451  68.796  0.00  0.00    -0.205 NA
ATOM      4  O   UNL     1     -12.055  12.212  67.619  0.00  0.00    -0.271 OA
BRANCH   2   5
ATOM      5  C   UNL     1      -9.811  12.119  66.741  0.00  0.00    +0.174 C 
BRANCH   5   8
ATOM      6  N   UNL     1      -9.320   8.354  67.475  0.00  0.00    -0.255 N 
ATOM      7  C   UNL     1      -9.018   9.732  67.204  0.00  0.00    +0.324 C 
ATOM      8  N   UNL     1     -10.008  10.555  66.687  0.00  0.00    -0.181 NA
ATOM      9  O   UNL     1      -7.861  10.170  67.349  0.00  0.00    -0.251 OA
ATOM     10  C   UNL     1     -10.441   7.711  66.805  0.00  0.00    +0.117 C 
BRANCH   6  11
ATOM     11  C   UNL     1      -8.947   7.910  68.804  0.00  0.00    +0.141 C 
BRANCH  11  15
ATOM     12  C   UNL     1     -11.583   8.650  71.180  0.00  0.00    +0.088 A 
ATOM     13  S   UNL     1     -11.998   6.995  70.975  0.00  0.00    -0.071 S 
ATOM     14  C   UNL     1     -10.894   6.626  69.710  0.00  0.00    +0.053 A 
ATOM     15  C   UNL     1     -10.139   7.795  69.706  0.00  0.00    +0.086 A 
ATOM     16  N   UNL     1     -10.860   8.854  70.057  0.00  0.00    -0.245 NA
BRANCH  12  18
ATOM     17  C   UNL     1     -13.829   9.071  72.124  0.00  0.00    +0.007 C 
ATOM     18  C   UNL     1     -12.477   9.660  71.830  0.00  0.00    +0.047 C 
ATOM     19  C   UNL     1     -12.589  10.863  70.923  0.00  0.00    +0.007 C 
ENDBRANCH  12  18
ENDBRANCH  11  15
ENDBRANCH   6  11
ENDBRANCH   5   8
BRANCH   5  20
ATOM     20  C   UNL     1     -10.978  12.406  65.606  0.00  0.00    +0.029 C 
ATOM     21  C   UNL     1     -10.899  11.209  64.704  0.00  0.00    +0.002 C 
ATOM     22  C   UNL     1     -10.542  13.667  64.901  0.00  0.00    +0.002 C 
ENDBRANCH   5  20
ENDBRANCH   2   5
ENDBRANCH   1   3
BRANCH   1  23
ATOM     23  C   UNL     1     -10.766  15.600  67.648  0.00  0.00    +0.057 C 
BRANCH  23  24
ATOM     24  C   UNL     1     -10.224  16.807  68.604  0.00  0.00    +0.174 C 
ATOM     25  O   UNL     1     -10.909  17.880  67.779  0.00  0.00    -0.221 OA
BRANCH  24  26
ATOM     26  C   UNL     1      -8.732  16.852  67.740  0.00  0.00    +0.133 C 
BRANCH  26  27
ATOM     27  N   UNL     1      -8.401  18.356  68.015  0.00  0.00    -0.168 NA
ATOM     28  C   UNL     1      -7.723  19.045  66.994  0.00  0.00    +0.421 C 
ATOM     29  O   UNL     1      -7.677  18.651  65.799  0.00  0.00    -0.225 OA
BRANCH  28  30
ATOM     30  O   UNL     1      -7.646  20.419  67.076  0.00  0.00    -0.428 OA
BRANCH  30  31
ATOM     31  C   UNL     1      -6.548  21.164  67.238  0.00  0.00    +0.245 C 
BRANCH  31  32
ATOM     32  C   UNL     1      -5.379  20.745  67.948  0.00  0.00    +0.071 A 
ATOM     33  S   UNL     1      -5.408  20.667  69.668  0.00  0.00    -0.065 S 
ATOM     34  C   UNL     1      -3.863  19.946  69.890  0.00  0.00    +0.134 A 
ATOM     35  N   UNL     1      -3.726  19.376  68.677  0.00  0.00    -0.235 NA
ATOM     36  C   UNL     1      -4.231  20.069  67.690  0.00  0.00    +0.105 A 
ENDBRANCH  31  32
ENDBRANCH  30  31
ENDBRANCH  28  30
ENDBRANCH  26  27
BRANCH  26  37
ATOM     37  C   UNL     1      -7.879  16.342  69.036  0.00  0.00    +0.051 C 
BRANCH  37  38
ATOM     38  C   UNL     1      -6.853  15.474  68.375  0.00  0.00    -0.020 A 
ATOM     39  C   UNL     1      -7.089  14.136  68.187  0.00  0.00    -0.004 A 
ATOM     40  C   UNL     1      -6.117  13.280  67.711  0.00  0.00    -0.000 A 
ATOM     41  C   UNL     1      -4.783  13.643  67.857  0.00  0.00    -0.000 A 
ATOM     42  C   UNL     1      -4.537  14.996  68.011  0.00  0.00    -0.000 A 
ATOM     43  C   UNL     1      -5.556  15.926  68.166  0.00  0.00    -0.004 A 
ENDBRANCH  37  38
ENDBRANCH  26  37
ENDBRANCH  24  26
ENDBRANCH  23  24
ENDBRANCH   1  23
BRANCH   1  44
ATOM     44  C   UNL     1     -11.033  15.403  69.988  0.00  0.00    +0.048 C 
BRANCH  44  45
ATOM     45  C   UNL     1     -11.908  14.937  71.112  0.00  0.00    -0.020 A 
ATOM     46  C   UNL     1     -11.673  15.301  72.434  0.00  0.00    -0.004 A 
ATOM     47  C   UNL     1     -12.718  15.488  73.333  0.00  0.00    -0.000 A 
ATOM     48  C   UNL     1     -13.988  15.733  72.822  0.00  0.00    -0.000 A 
ATOM     49  C   UNL     1     -14.279  15.150  71.594  0.00  0.00    -0.000 A 
ATOM     50  C   UNL     1     -13.233  14.594  70.861  0.00  0.00    -0.004 A 
ENDBRANCH  44  45
ENDBRANCH   1  44
TORSDOF 18
ENDMDL
MODEL 4
REMARK VINA RESULT:      -7.6      2.917      5.646
REMARK  Name = 
REMARK  18 active torsions:
REMARK  status: ('A' for Active; 'I' for Inactive)
REMARK    1  A    between atoms: C_2  and  C_4
REMARK    2  A    between atoms: C_6  and  C_7
REMARK    3  A    between atoms: C_7  and  N_8
REMARK    4  A    between atoms: N_12  and  C_13
REMARK    5  A    between atoms: C_13  and  C_14
REMARK    6  A    between atoms: C_13  and  C_46
REMARK    7  A    between atoms: N_16  and  C_17
REMARK    8  A    between atoms: C_17  and  C_18
REMARK    9  A    between atoms: C_17  and  C_25
REMARK   10  A    between atoms: C_18  and  C_19
REMARK   11  A    between atoms: C_25  and  C_26
REMARK   12  A    between atoms: C_26  and  C_28
REMARK   13  A    between atoms: C_28  and  C_29
REMARK   14  A    between atoms: C_28  and  N_36
REMARK   15  A    between atoms: C_29  and  C_30
REMARK   16  A    between atoms: C_37  and  O_39
REMARK   17  A    between atoms: O_39  and  C_40
REMARK   18  A    between atoms: C_40  and  C_41
REMARK                            x       y       z     vdW  Elec       q    Type
REMARK                         _______ _______ _______ _____ _____    ______ ____
ROOT
ATOM      1  C   UNL     1     -10.511  11.030  68.168  0.00  0.00    +0.102 C 
ENDROOT
BRANCH   1   3
ATOM      2  C   UNL     1      -9.318   9.908  66.212  0.00  0.00    +0.261 C 
ATOM      3  N   UNL     1      -9.180  10.488  67.510  0.00  0.00    -0.205 NA
ATOM      4  O   UNL     1     -10.502   9.511  65.972  0.00  0.00    -0.271 OA
BRANCH   2   5
ATOM      5  C   UNL     1      -8.716  10.809  65.003  0.00  0.00    +0.174 C 
BRANCH   5   8
ATOM      6  N   UNL     1      -6.215   7.933  64.354  0.00  0.00    -0.255 N 
ATOM      7  C   UNL     1      -6.730   9.224  64.712  0.00  0.00    +0.324 C 
ATOM      8  N   UNL     1      -8.010   9.581  64.312  0.00  0.00    -0.181 NA
ATOM      9  O   UNL     1      -6.012  10.054  65.304  0.00  0.00    -0.251 OA
ATOM     10  C   UNL     1      -6.788   7.209  63.229  0.00  0.00    +0.117 C 
BRANCH   6  11
ATOM     11  C   UNL     1      -5.660   7.181  65.464  0.00  0.00    +0.141 C 
BRANCH  11  15
ATOM     12  C   UNL     1      -8.591   6.493  67.481  0.00  0.00    +0.088 A 
ATOM     13  S   UNL     1      -7.713   7.288  68.725  0.00  0.00    -0.071 S 
ATOM     14  C   UNL     1      -6.226   7.479  67.883  0.00  0.00    +0.053 A 
ATOM     15  C   UNL     1      -6.623   7.086  66.608  0.00  0.00    +0.086 A 
ATOM     16  N   UNL     1      -7.580   6.166  66.648  0.00  0.00    -0.245 NA
BRANCH  12  18
ATOM     17  C   UNL     1     -11.054   6.395  67.280  0.00  0.00    +0.007 C 
ATOM     18  C   UNL     1      -9.817   5.666  67.725  0.00  0.00    +0.047 C 
ATOM     19  C   UNL     1      -9.882   5.319  69.193  0.00  0.00    +0.007 C 
ENDBRANCH  12  18
ENDBRANCH  11  15
ENDBRANCH   6  11
ENDBRANCH   5   8
BRANCH   5  20
ATOM     20  C   UNL     1     -10.083  10.667  64.086  0.00  0.00    +0.029 C 
ATOM     21  C   UNL     1      -9.576  10.164  62.766  0.00  0.00    +0.002 C 
ATOM     22  C   UNL     1     -10.634  12.068  63.977  0.00  0.00    +0.002 C 
ENDBRANCH   5  20
ENDBRANCH   2   5
ENDBRANCH   1   3
BRANCH   1  23
ATOM     23  C   UNL     1      -9.971  12.499  68.650  0.00  0.00    +0.057 C 
BRANCH  23  24
ATOM     24  C   UNL     1     -10.667  13.550  67.613  0.00  0.00    +0.174 C 
ATOM     25  O   UNL     1      -9.347  13.904  66.955  0.00  0.00    -0.221 OA
BRANCH  24  26
ATOM     26  C   UNL     1     -10.606  14.798  68.802  0.00  0.00    +0.133 C 
BRANCH  26  27
ATOM     27  N   UNL     1     -10.772  16.003  67.818  0.00  0.00    -0.168 NA
ATOM     28  C   UNL     1     -10.102  17.190  68.163  0.00  0.00    +0.421 C 
ATOM     29  O   UNL     1      -9.147  17.239  68.983  0.00  0.00    -0.225 OA
BRANCH  28  30
ATOM     30  O   UNL     1     -10.000  18.180  67.210  0.00  0.00    -0.428 OA
BRANCH  30  31
ATOM     31  C   UNL     1      -8.967  18.425  66.397  0.00  0.00    +0.245 C 
BRANCH  31  32
ATOM     32  C   UNL     1      -7.907  19.343  66.683  0.00  0.00    +0.071 A 
ATOM     33  S   UNL     1      -6.823  19.811  65.429  0.00  0.00    -0.065 S 
ATOM     34  C   UNL     1      -5.960  21.009  66.309  0.00  0.00    +0.134 A 
ATOM     35  N   UNL     1      -6.891  21.291  67.241  0.00  0.00    -0.235 NA
ATOM     36  C   UNL     1      -7.599  20.263  67.631  0.00  0.00    +0.105 A 
ENDBRANCH  31  32
ENDBRANCH  30  31
ENDBRANCH  28  30
ENDBRANCH  26  27
BRANCH  26  37
ATOM     37  C   UNL     1     -12.211  14.707  69.090  0.00  0.00    +0.051 C 
BRANCH  37  38
ATOM     38  C   UNL     1     -12.234  14.776  70.586  0.00  0.00    -0.020 A 
ATOM     39  C   UNL     1     -13.046  13.940  71.310  0.00  0.00    -0.004 A 
ATOM     40  C   UNL     1     -13.198  14.067  72.675  0.00  0.00    -0.000 A 
ATOM     41  C   UNL     1     -12.920  15.296  73.262  0.00  0.00    -0.000 A 
ATOM     42  C   UNL     1     -12.074  16.128  72.552  0.00  0.00    -0.000 A 
ATOM     43  C   UNL     1     -11.644  15.834  71.266  0.00  0.00    -0.004 A 
ENDBRANCH  37  38
ENDBRANCH  26  37
ENDBRANCH  24  26
ENDBRANCH  23  24
ENDBRANCH   1  23
BRANCH   1  44
ATOM     44  C   UNL     1     -10.143  10.354  69.627  0.00  0.00    +0.048 C 
BRANCH  44  45
ATOM     45  C   UNL     1     -11.411   9.686  70.064  0.00  0.00    -0.020 A 
ATOM     46  C   UNL     1     -11.424   8.408  70.615  0.00  0.00    -0.004 A 
ATOM     47  C   UNL     1     -12.347   8.047  71.592  0.00  0.00    -0.000 A 
ATOM     48  C   UNL     1     -12.963   9.060  72.318  0.00  0.00    -0.000 A 
ATOM     49  C   UNL     1     -13.155  10.265  71.653  0.00  0.00    -0.000 A 
ATOM     50  C   UNL     1     -12.509  10.457  70.434  0.00  0.00    -0.004 A 
ENDBRANCH  44  45
ENDBRANCH   1  44
TORSDOF 18
ENDMDL
MODEL 5
REMARK VINA RESULT:      -7.6      2.897      9.787
REMARK  Name = 
REMARK  18 active torsions:
REMARK  status: ('A' for Active; 'I' for Inactive)
REMARK    1  A    between atoms: C_2  and  C_4
REMARK    2  A    between atoms: C_6  and  C_7
REMARK    3  A    between atoms: C_7  and  N_8
REMARK    4  A    between atoms: N_12  and  C_13
REMARK    5  A    between atoms: C_13  and  C_14
REMARK    6  A    between atoms: C_13  and  C_46
REMARK    7  A    between atoms: N_16  and  C_17
REMARK    8  A    between atoms: C_17  and  C_18
REMARK    9  A    between atoms: C_17  and  C_25
REMARK   10  A    between atoms: C_18  and  C_19
REMARK   11  A    between atoms: C_25  and  C_26
REMARK   12  A    between atoms: C_26  and  C_28
REMARK   13  A    between atoms: C_28  and  C_29
REMARK   14  A    between atoms: C_28  and  N_36
REMARK   15  A    between atoms: C_29  and  C_30
REMARK   16  A    between atoms: C_37  and  O_39
REMARK   17  A    between atoms: O_39  and  C_40
REMARK   18  A    between atoms: C_40  and  C_41
REMARK                            x       y       z     vdW  Elec       q    Type
REMARK                         _______ _______ _______ _____ _____    ______ ____
ROOT
ATOM      1  C   UNL     1     -10.964  13.090  68.254  0.00  0.00    +0.102 C 
ENDROOT
BRANCH   1   3
ATOM      2  C   UNL     1     -12.386  13.671  66.217  0.00  0.00    +0.261 C 
ATOM      3  N   UNL     1     -11.754  12.630  66.965  0.00  0.00    -0.205 NA
ATOM      4  O   UNL     1     -12.601  14.715  66.910  0.00  0.00    -0.271 OA
BRANCH   2   5
ATOM      5  C   UNL     1     -11.673  14.011  64.800  0.00  0.00    +0.174 C 
BRANCH   5   8
ATOM      6  N   UNL     1      -8.942  16.081  66.591  0.00  0.00    -0.255 N 
ATOM      7  C   UNL     1     -10.002  15.732  65.687  0.00  0.00    +0.324 C 
ATOM      8  N   UNL     1     -10.300  14.393  65.475  0.00  0.00    -0.181 NA
ATOM      9  O   UNL     1     -10.596  16.610  65.033  0.00  0.00    -0.251 OA
ATOM     10  C   UNL     1      -7.906  15.108  66.907  0.00  0.00    +0.117 C 
BRANCH   6  11
ATOM     11  C   UNL     1      -9.308  17.067  67.590  0.00  0.00    +0.141 C 
BRANCH  11  15
ATOM     12  C   UNL     1      -6.935  19.686  68.390  0.00  0.00    +0.088 A 
ATOM     13  S   UNL     1      -7.364  20.312  66.848  0.00  0.00    -0.071 S 
ATOM     14  C   UNL     1      -8.357  19.007  66.330  0.00  0.00    +0.053 A 
ATOM     15  C   UNL     1      -8.436  18.283  67.516  0.00  0.00    +0.086 A 
ATOM     16  N   UNL     1      -7.333  18.404  68.245  0.00  0.00    -0.245 NA
BRANCH  12  18
ATOM     17  C   UNL     1      -4.531  19.312  68.831  0.00  0.00    +0.007 C 
ATOM     18  C   UNL     1      -5.739  20.140  69.170  0.00  0.00    +0.047 C 
ATOM     19  C   UNL     1      -6.063  20.061  70.643  0.00  0.00    +0.007 C 
ENDBRANCH  12  18
ENDBRANCH  11  15
ENDBRANCH   6  11
ENDBRANCH   5   8
BRANCH   5  20
ATOM     20  C   UNL     1     -11.222  12.442  64.539  0.00  0.00    +0.029 C 
ATOM     21  C   UNL     1      -9.883  12.562  63.873  0.00  0.00    +0.002 C 
ATOM     22  C   UNL     1     -12.264  11.881  63.604  0.00  0.00    +0.002 C 
ENDBRANCH   5  20
ENDBRANCH   2   5
ENDBRANCH   1   3
BRANCH   1  23
ATOM     23  C   UNL     1      -9.938  11.820  68.383  0.00  0.00    +0.057 C 
BRANCH  23  24
ATOM     24  C   UNL     1     -10.902  10.506  68.296  0.00  0.00    +0.174 C 
ATOM     25  O   UNL     1     -10.694  10.153  69.757  0.00  0.00    -0.221 OA
BRANCH  24  26
ATOM     26  C   UNL     1      -9.591   9.555  67.702  0.00  0.00    +0.133 C 
BRANCH  26  27
ATOM     27  N   UNL     1     -10.207   8.156  68.035  0.00  0.00    -0.168 NA
ATOM     28  C   UNL     1      -9.299   7.132  68.355  0.00  0.00    +0.421 C 
ATOM     29  O   UNL     1      -8.110   7.341  68.714  0.00  0.00    -0.225 OA
BRANCH  28  30
ATOM     30  O   UNL     1      -9.795   5.970  68.907  0.00  0.00    -0.428 OA
BRANCH  30  31
ATOM     31  C   UNL     1     -10.938   5.814  69.583  0.00  0.00    +0.245 C 
BRANCH  31  32
ATOM     32  C   UNL     1     -11.202   6.373  70.874  0.00  0.00    +0.071 A 
ATOM     33  S   UNL     1      -9.959   6.386  72.067  0.00  0.00    -0.065 S 
ATOM     34  C   UNL     1     -10.790   7.314  73.251  0.00  0.00    +0.134 A 
ATOM     35  N   UNL     1     -11.668   7.940  72.444  0.00  0.00    -0.235 NA
ATOM     36  C   UNL     1     -12.099   7.215  71.444  0.00  0.00    +0.105 A 
ENDBRANCH  31  32
ENDBRANCH  30  31
ENDBRANCH  28  30
ENDBRANCH  26  27
BRANCH  26  37
ATOM     37  C   UNL     1     -10.187   9.546  66.181  0.00  0.00    +0.051 C 
BRANCH  37  38
ATOM     38  C   UNL     1      -8.924   9.447  65.383  0.00  0.00    -0.020 A 
ATOM     39  C   UNL     1      -7.774  10.056  65.818  0.00  0.00    -0.004 A 
ATOM     40  C   UNL     1      -6.633  10.104  65.046  0.00  0.00    -0.000 A 
ATOM     41  C   UNL     1      -6.757   9.963  63.668  0.00  0.00    -0.000 A 
ATOM     42  C   UNL     1      -7.897   9.317  63.226  0.00  0.00    -0.000 A 
ATOM     43  C   UNL     1      -8.933   8.964  64.081  0.00  0.00    -0.004 A 
ENDBRANCH  37  38
ENDBRANCH  26  37
ENDBRANCH  24  26
ENDBRANCH  23  24
ENDBRANCH   1  23
BRANCH   1  44
ATOM     44  C   UNL     1     -12.060  12.379  69.260  0.00  0.00    +0.048 C 
BRANCH  44  45
ATOM     45  C   UNL     1     -12.165  13.315  70.426  0.00  0.00    -0.020 A 
ATOM     46  C   UNL     1     -12.091  14.696  70.276  0.00  0.00    -0.004 A 
ATOM     47  C   UNL     1     -12.814  15.556  71.097  0.00  0.00    -0.000 A 
ATOM     48  C   UNL     1     -13.920  15.048  71.768  0.00  0.00    -0.000 A 
ATOM     49  C   UNL     1     -13.862  13.704  72.120  0.00  0.00    -0.000 A 
ATOM     50  C   UNL     1     -12.850  12.921  71.571  0.00  0.00    -0.004 A 
ENDBRANCH  44  45
ENDBRANCH   1  44
TORSDOF 18
ENDMDL
MODEL 6
REMARK VINA RESULT:      -7.6      2.877     10.286
REMARK  Name = 
REMARK  18 active torsions:
REMARK  status: ('A' for Active; 'I' for Inactive)
REMARK    1  A    between atoms: C_2  and  C_4
REMARK    2  A    between atoms: C_6  and  C_7
REMARK    3  A    between atoms: C_7  and  N_8
REMARK    4  A    between atoms: N_12  and  C_13
REMARK    5  A    between atoms: C_13  and  C_14
REMARK    6  A    between atoms: C_13  and  C_46
REMARK    7  A    between atoms: N_16  and  C_17
REMARK    8  A    between atoms: C_17  and  C_18
REMARK    9  A    between atoms: C_17  and  C_25
REMARK   10  A    between atoms: C_18  and  C_19
REMARK   11  A    between atoms: C_25  and  C_26
REMARK   12  A    between atoms: C_26  and  C_28
REMARK   13  A    between atoms: C_28  and  C_29
REMARK   14  A    between atoms: C_28  and  N_36
REMARK   15  A    between atoms: C_29  and  C_30
REMARK   16  A    between atoms: C_37  and  O_39
REMARK   17  A    between atoms: O_39  and  C_40
REMARK   18  A    between atoms: C_40  and  C_41
REMARK                            x       y       z     vdW  Elec       q    Type
REMARK                         _______ _______ _______ _____ _____    ______ ____
ROOT
ATOM      1  C   UNL     1      -8.781  14.233  68.296  0.00  0.00    +0.102 C 
ENDROOT
BRANCH   1   3
ATOM      2  C   UNL     1      -7.131  16.174  68.150  0.00  0.00    +0.261 C 
ATOM      3  N   UNL     1      -7.760  15.097  67.453  0.00  0.00    -0.205 NA
ATOM      4  O   UNL     1      -7.790  16.554  69.169  0.00  0.00    -0.271 OA
BRANCH   2   5
ATOM      5  C   UNL     1      -5.562  15.932  68.489  0.00  0.00    +0.174 C 
BRANCH   5   8
ATOM      6  N   UNL     1      -4.799  19.567  69.566  0.00  0.00    -0.255 N 
ATOM      7  C   UNL     1      -4.645  18.272  68.965  0.00  0.00    +0.324 C 
ATOM      8  N   UNL     1      -5.459  17.228  69.382  0.00  0.00    -0.181 NA
ATOM      9  O   UNL     1      -3.737  18.058  68.138  0.00  0.00    -0.251 OA
ATOM     10  C   UNL     1      -5.426  19.691  70.874  0.00  0.00    +0.117 C 
BRANCH   6  11
ATOM     11  C   UNL     1      -4.933  20.655  68.617  0.00  0.00    +0.141 C 
BRANCH  11  15
ATOM     12  C   UNL     1      -7.966  19.694  66.881  0.00  0.00    +0.088 A 
ATOM     13  S   UNL     1      -7.023  19.920  65.462  0.00  0.00    -0.071 S 
ATOM     14  C   UNL     1      -5.615  20.561  66.211  0.00  0.00    +0.053 A 
ATOM     15  C   UNL     1      -5.935  20.339  67.548  0.00  0.00    +0.086 A 
ATOM     16  N   UNL     1      -7.243  20.416  67.764  0.00  0.00    -0.245 NA
BRANCH  12  18
ATOM     17  C   UNL     1     -10.016  19.747  68.264  0.00  0.00    +0.007 C 
ATOM     18  C   UNL     1      -9.459  19.571  66.878  0.00  0.00    +0.047 C 
ATOM     19  C   UNL     1      -9.832  18.225  66.304  0.00  0.00    +0.007 C 
ENDBRANCH  12  18
ENDBRANCH  11  15
ENDBRANCH   6  11
ENDBRANCH   5   8
BRANCH   5  20
ATOM     20  C   UNL     1      -5.891  14.950  69.777  0.00  0.00    +0.029 C 
ATOM     21  C   UNL     1      -5.126  15.576  70.906  0.00  0.00    +0.002 C 
ATOM     22  C   UNL     1      -5.330  13.601  69.400  0.00  0.00    +0.002 C 
ENDBRANCH   5  20
ENDBRANCH   2   5
ENDBRANCH   1   3
BRANCH   1  23
ATOM     23  C   UNL     1      -8.615  12.809  67.505  0.00  0.00    +0.057 C 
BRANCH  23  24
ATOM     24  C   UNL     1      -9.083  11.682  68.589  0.00  0.00    +0.174 C 
ATOM     25  O   UNL     1      -7.677  11.135  68.751  0.00  0.00    -0.221 OA
BRANCH  24  26
ATOM     26  C   UNL     1      -9.537  10.612  67.315  0.00  0.00    +0.133 C 
BRANCH  26  27
ATOM     27  N   UNL     1      -9.810   9.359  68.211  0.00  0.00    -0.168 NA
ATOM     28  C   UNL     1     -10.012   8.141  67.539  0.00  0.00    +0.421 C 
ATOM     29  O   UNL     1      -9.662   7.936  66.347  0.00  0.00    -0.225 OA
BRANCH  28  30
ATOM     30  O   UNL     1      -9.991   6.977  68.278  0.00  0.00    -0.428 OA
BRANCH  30  31
ATOM     31  C   UNL     1     -10.997   6.434  68.970  0.00  0.00    +0.245 C 
BRANCH  31  32
ATOM     32  C   UNL     1     -11.294   6.728  70.339  0.00  0.00    +0.071 A 
ATOM     33  S   UNL     1     -10.048   7.311  71.375  0.00  0.00    -0.065 S 
ATOM     34  C   UNL     1     -11.029   7.644  72.747  0.00  0.00    +0.134 A 
ATOM     35  N   UNL     1     -12.215   7.778  72.124  0.00  0.00    -0.235 NA
ATOM     36  C   UNL     1     -12.387   6.980  71.102  0.00  0.00    +0.105 A 
ENDBRANCH  31  32
ENDBRANCH  30  31
ENDBRANCH  28  30
ENDBRANCH  26  27
BRANCH  26  37
ATOM     37  C   UNL     1     -11.099  11.090  67.369  0.00  0.00    +0.051 C 
BRANCH  37  38
ATOM     38  C   UNL     1     -11.341  11.423  65.929  0.00  0.00    -0.020 A 
ATOM     39  C   UNL     1     -10.541  10.896  64.947  0.00  0.00    -0.004 A 
ATOM     40  C   UNL     1     -10.646  11.287  63.628  0.00  0.00    -0.000 A 
ATOM     41  C   UNL     1     -11.213  12.524  63.345  0.00  0.00    -0.000 A 
ATOM     42  C   UNL     1     -12.049  13.043  64.317  0.00  0.00    -0.000 A 
ATOM     43  C   UNL     1     -12.201  12.451  65.564  0.00  0.00    -0.004 A 
ENDBRANCH  37  38
ENDBRANCH  26  37
ENDBRANCH  24  26
ENDBRANCH  23  24
ENDBRANCH   1  23
BRANCH   1  44
ATOM     44  C   UNL     1     -10.049  14.680  67.341  0.00  0.00    +0.048 C 
BRANCH  44  45
ATOM     45  C   UNL     1     -11.160  14.976  68.302  0.00  0.00    -0.020 A 
ATOM     46  C   UNL     1     -11.878  13.969  68.939  0.00  0.00    -0.004 A 
ATOM     47  C   UNL     1     -12.373  14.133  70.229  0.00  0.00    -0.000 A 
ATOM     48  C   UNL     1     -11.796  15.109  71.033  0.00  0.00    -0.000 A 
ATOM     49  C   UNL     1     -11.296  16.229  70.379  0.00  0.00    -0.000 A 
ATOM     50  C   UNL     1     -11.175  16.184  68.992  0.00  0.00    -0.004 A 
ENDBRANCH  44  45
ENDBRANCH   1  44
TORSDOF 18
ENDMDL
MODEL 7
REMARK VINA RESULT:      -7.5      3.241      5.753
REMARK  Name = 
REMARK  18 active torsions:
REMARK  status: ('A' for Active; 'I' for Inactive)
REMARK    1  A    between atoms: C_2  and  C_4
REMARK    2  A    between atoms: C_6  and  C_7
REMARK    3  A    between atoms: C_7  and  N_8
REMARK    4  A    between atoms: N_12  and  C_13
REMARK    5  A    between atoms: C_13  and  C_14
REMARK    6  A    between atoms: C_13  and  C_46
REMARK    7  A    between atoms: N_16  and  C_17
REMARK    8  A    between atoms: C_17  and  C_18
REMARK    9  A    between atoms: C_17  and  C_25
REMARK   10  A    between atoms: C_18  and  C_19
REMARK   11  A    between atoms: C_25  and  C_26
REMARK   12  A    between atoms: C_26  and  C_28
REMARK   13  A    between atoms: C_28  and  C_29
REMARK   14  A    between atoms: C_28  and  N_36
REMARK   15  A    between atoms: C_29  and  C_30
REMARK   16  A    between atoms: C_37  and  O_39
REMARK   17  A    between atoms: O_39  and  C_40
REMARK   18  A    between atoms: C_40  and  C_41
REMARK                            x       y       z     vdW  Elec       q    Type
REMARK                         _______ _______ _______ _____ _____    ______ ____
ROOT
ATOM      1  C   UNL     1      -9.763  11.548  66.439  0.00  0.00    +0.102 C 
ENDROOT
BRANCH   1   3
ATOM      2  C   UNL     1      -9.229   9.086  66.032  0.00  0.00    +0.261 C 
ATOM      3  N   UNL     1      -9.555  10.084  67.001  0.00  0.00    -0.205 NA
ATOM      4  O   UNL     1      -9.587   9.406  64.854  0.00  0.00    -0.271 OA
BRANCH   2   5
ATOM      5  C   UNL     1      -7.692   8.568  66.088  0.00  0.00    +0.174 C 
BRANCH   5   8
ATOM      6  N   UNL     1      -7.841   6.742  69.492  0.00  0.00    -0.255 N 
ATOM      7  C   UNL     1      -7.336   7.507  68.387  0.00  0.00    +0.324 C 
ATOM      8  N   UNL     1      -8.003   7.466  67.171  0.00  0.00    -0.181 NA
ATOM      9  O   UNL     1      -6.266   8.137  68.486  0.00  0.00    -0.251 OA
ATOM     10  C   UNL     1      -8.716   5.603  69.249  0.00  0.00    +0.117 C 
BRANCH   6  11
ATOM     11  C   UNL     1      -7.996   7.496  70.722  0.00  0.00    +0.141 C 
BRANCH  11  15
ATOM     12  C   UNL     1     -11.452   8.441  71.269  0.00  0.00    +0.088 A 
ATOM     13  S   UNL     1     -11.013   9.878  70.435  0.00  0.00    -0.071 S 
ATOM     14  C   UNL     1      -9.325   9.575  70.308  0.00  0.00    +0.053 A 
ATOM     15  C   UNL     1      -9.288   8.255  70.749  0.00  0.00    +0.086 A 
ATOM     16  N   UNL     1     -10.231   8.005  71.649  0.00  0.00    -0.245 NA
BRANCH  12  18
ATOM     17  C   UNL     1     -13.615   7.257  71.446  0.00  0.00    +0.007 C 
ATOM     18  C   UNL     1     -12.714   8.290  72.062  0.00  0.00    +0.047 C 
ATOM     19  C   UNL     1     -13.396   9.635  72.145  0.00  0.00    +0.007 C 
ENDBRANCH  12  18
ENDBRANCH  11  15
ENDBRANCH   6  11
ENDBRANCH   5   8
BRANCH   5  20
ATOM     20  C   UNL     1      -7.895   7.525  64.823  0.00  0.00    +0.029 C 
ATOM     21  C   UNL     1      -8.431   6.281  65.469  0.00  0.00    +0.002 C 
ATOM     22  C   UNL     1      -6.511   7.310  64.260  0.00  0.00    +0.002 C 
ENDBRANCH   5  20
ENDBRANCH   2   5
ENDBRANCH   1   3
BRANCH   1  23
ATOM     23  C   UNL     1      -9.140  12.388  67.699  0.00  0.00    +0.057 C 
BRANCH  23  24
ATOM     24  C   UNL     1      -8.824  13.868  67.087  0.00  0.00    +0.174 C 
ATOM     25  O   UNL     1      -7.322  13.688  67.203  0.00  0.00    -0.221 OA
BRANCH  24  26
ATOM     26  C   UNL     1      -9.032  14.581  68.643  0.00  0.00    +0.133 C 
BRANCH  26  27
ATOM     27  N   UNL     1      -8.506  16.006  68.269  0.00  0.00    -0.168 NA
ATOM     28  C   UNL     1      -7.475  16.524  69.072  0.00  0.00    +0.421 C 
ATOM     29  O   UNL     1      -6.747  15.815  69.815  0.00  0.00    -0.225 OA
BRANCH  28  30
ATOM     30  O   UNL     1      -6.805  17.644  68.629  0.00  0.00    -0.428 OA
BRANCH  30  31
ATOM     31  C   UNL     1      -7.252  18.904  68.601  0.00  0.00    +0.245 C 
BRANCH  31  32
ATOM     32  C   UNL     1      -8.525  19.302  68.083  0.00  0.00    +0.071 A 
ATOM     33  S   UNL     1      -8.769  19.367  66.379  0.00  0.00    -0.065 S 
ATOM     34  C   UNL     1     -10.456  19.698  66.402  0.00  0.00    +0.134 A 
ATOM     35  N   UNL     1     -10.743  19.214  67.626  0.00  0.00    -0.235 NA
ATOM     36  C   UNL     1      -9.806  19.399  68.519  0.00  0.00    +0.105 A 
ENDBRANCH  31  32
ENDBRANCH  30  31
ENDBRANCH  28  30
ENDBRANCH  26  27
BRANCH  26  37
ATOM     37  C   UNL     1     -10.585  14.985  68.335  0.00  0.00    +0.051 C 
BRANCH  37  38
ATOM     38  C   UNL     1     -11.195  14.814  69.692  0.00  0.00    -0.020 A 
ATOM     39  C   UNL     1     -11.995  13.734  69.966  0.00  0.00    -0.004 A 
ATOM     40  C   UNL     1     -12.685  13.615  71.155  0.00  0.00    -0.000 A 
ATOM     41  C   UNL     1     -12.959  14.768  71.881  0.00  0.00    -0.000 A 
ATOM     42  C   UNL     1     -12.133  15.850  71.634  0.00  0.00    -0.000 A 
ATOM     43  C   UNL     1     -11.186  15.848  70.620  0.00  0.00    -0.004 A 
ENDBRANCH  37  38
ENDBRANCH  26  37
ENDBRANCH  24  26
ENDBRANCH  23  24
ENDBRANCH   1  23
BRANCH   1  44
ATOM     44  C   UNL     1     -11.288  11.640  67.059  0.00  0.00    +0.048 C 
BRANCH  44  45
ATOM     45  C   UNL     1     -12.088  12.326  65.993  0.00  0.00    -0.020 A 
ATOM     46  C   UNL     1     -12.518  13.643  66.121  0.00  0.00    -0.004 A 
ATOM     47  C   UNL     1     -12.625  14.483  65.018  0.00  0.00    -0.000 A 
ATOM     48  C   UNL     1     -11.907  14.157  63.873  0.00  0.00    -0.000 A 
ATOM     49  C   UNL     1     -11.697  12.802  63.644  0.00  0.00    -0.000 A 
ATOM     50  C   UNL     1     -11.984  11.906  64.671  0.00  0.00    -0.004 A 
ENDBRANCH  44  45
ENDBRANCH   1  44
TORSDOF 18
ENDMDL
MODEL 8
REMARK VINA RESULT:      -7.5      2.888      4.094
REMARK  Name = 
REMARK  18 active torsions:
REMARK  status: ('A' for Active; 'I' for Inactive)
REMARK    1  A    between atoms: C_2  and  C_4
REMARK    2  A    between atoms: C_6  and  C_7
REMARK    3  A    between atoms: C_7  and  N_8
REMARK    4  A    between atoms: N_12  and  C_13
REMARK    5  A    between atoms: C_13  and  C_14
REMARK    6  A    between atoms: C_13  and  C_46
REMARK    7  A    between atoms: N_16  and  C_17
REMARK    8  A    between atoms: C_17  and  C_18
REMARK    9  A    between atoms: C_17  and  C_25
REMARK   10  A    between atoms: C_18  and  C_19
REMARK   11  A    between atoms: C_25  and  C_26
REMARK   12  A    between atoms: C_26  and  C_28
REMARK   13  A    between atoms: C_28  and  C_29
REMARK   14  A    between atoms: C_28  and  N_36
REMARK   15  A    between atoms: C_29  and  C_30
REMARK   16  A    between atoms: C_37  and  O_39
REMARK   17  A    between atoms: O_39  and  C_40
REMARK   18  A    between atoms: C_40  and  C_41
REMARK                            x       y       z     vdW  Elec       q    Type
REMARK                         _______ _______ _______ _____ _____    ______ ____
ROOT
ATOM      1  C   UNL     1     -11.234  14.835  68.370  0.00  0.00    +0.102 C 
ENDROOT
BRANCH   1   3
ATOM      2  C   UNL     1     -11.485  13.696  66.100  0.00  0.00    +0.261 C 
ATOM      3  N   UNL     1     -11.464  13.523  67.519  0.00  0.00    -0.205 NA
ATOM      4  O   UNL     1     -11.762  14.887  65.753  0.00  0.00    -0.271 OA
BRANCH   2   5
ATOM      5  C   UNL     1     -10.177  13.121  65.332  0.00  0.00    +0.174 C 
BRANCH   5   8
ATOM      6  N   UNL     1      -9.416   9.992  67.473  0.00  0.00    -0.255 N 
ATOM      7  C   UNL     1      -9.221  11.118  66.604  0.00  0.00    +0.324 C 
ATOM      8  N   UNL     1     -10.317  11.686  65.970  0.00  0.00    -0.181 NA
ATOM      9  O   UNL     1      -8.074  11.536  66.352  0.00  0.00    -0.251 OA
ATOM     10  C   UNL     1     -10.609   9.168  67.338  0.00  0.00    +0.117 C 
BRANCH   6  11
ATOM     11  C   UNL     1      -8.803  10.131  68.780  0.00  0.00    +0.141 C 
BRANCH  11  15
ATOM     12  C   UNL     1     -11.613   9.935  71.061  0.00  0.00    +0.088 A 
ATOM     13  S   UNL     1     -10.733   8.638  71.765  0.00  0.00    -0.071 S 
ATOM     14  C   UNL     1      -9.464   8.555  70.608  0.00  0.00    +0.053 A 
ATOM     15  C   UNL     1      -9.733   9.709  69.877  0.00  0.00    +0.086 A 
ATOM     16  N   UNL     1     -11.032   9.983  69.843  0.00  0.00    -0.245 NA
BRANCH  12  18
ATOM     17  C   UNL     1     -13.234  11.576  71.952  0.00  0.00    +0.007 C 
ATOM     18  C   UNL     1     -13.058  10.213  71.344  0.00  0.00    +0.047 C 
ATOM     19  C   UNL     1     -13.588   9.132  72.258  0.00  0.00    +0.007 C 
ENDBRANCH  12  18
ENDBRANCH  11  15
ENDBRANCH   6  11
ENDBRANCH   5   8
BRANCH   5  20
ATOM     20  C   UNL     1     -11.031  12.712  63.978  0.00  0.00    +0.029 C 
ATOM     21  C   UNL     1     -12.239  12.004  64.519  0.00  0.00    +0.002 C 
ATOM     22  C   UNL     1     -10.131  11.776  63.209  0.00  0.00    +0.002 C 
ENDBRANCH   5  20
ENDBRANCH   2   5
ENDBRANCH   1   3
BRANCH   1  23
ATOM     23  C   UNL     1      -9.631  14.665  68.660  0.00  0.00    +0.057 C 
BRANCH  23  24
ATOM     24  C   UNL     1      -9.100  16.186  68.923  0.00  0.00    +0.174 C 
ATOM     25  O   UNL     1      -9.729  16.715  67.648  0.00  0.00    -0.221 OA
BRANCH  24  26
ATOM     26  C   UNL     1      -7.576  15.800  68.216  0.00  0.00    +0.133 C 
BRANCH  26  27
ATOM     27  N   UNL     1      -6.951  17.231  68.323  0.00  0.00    -0.168 NA
ATOM     28  C   UNL     1      -5.901  17.524  67.436  0.00  0.00    +0.421 C 
ATOM     29  O   UNL     1      -5.676  16.872  66.383  0.00  0.00    -0.225 OA
BRANCH  28  30
ATOM     30  O   UNL     1      -5.502  18.838  67.311  0.00  0.00    -0.428 OA
BRANCH  30  31
ATOM     31  C   UNL     1      -5.865  19.875  68.072  0.00  0.00    +0.245 C 
BRANCH  31  32
ATOM     32  C   UNL     1      -5.478  20.054  69.438  0.00  0.00    +0.071 A 
ATOM     33  S   UNL     1      -3.945  20.746  69.806  0.00  0.00    -0.065 S 
ATOM     34  C   UNL     1      -4.153  20.871  71.508  0.00  0.00    +0.134 A 
ATOM     35  N   UNL     1      -5.500  20.875  71.551  0.00  0.00    -0.235 NA
ATOM     36  C   UNL     1      -6.075  20.115  70.655  0.00  0.00    +0.105 A 
ENDBRANCH  31  32
ENDBRANCH  30  31
ENDBRANCH  28  30
ENDBRANCH  26  27
BRANCH  26  37
ATOM     37  C   UNL     1      -6.945  15.329  69.647  0.00  0.00    +0.051 C 
BRANCH  37  38
ATOM     38  C   UNL     1      -5.789  14.496  69.186  0.00  0.00    -0.020 A 
ATOM     39  C   UNL     1      -5.932  13.625  68.136  0.00  0.00    -0.004 A 
ATOM     40  C   UNL     1      -4.934  12.744  67.773  0.00  0.00    -0.000 A 
ATOM     41  C   UNL     1      -3.981  12.394  68.722  0.00  0.00    -0.000 A 
ATOM     42  C   UNL     1      -3.807  13.287  69.764  0.00  0.00    -0.000 A 
ATOM     43  C   UNL     1      -4.632  14.389  69.947  0.00  0.00    -0.004 A 
ENDBRANCH  37  38
ENDBRANCH  26  37
ENDBRANCH  24  26
ENDBRANCH  23  24
ENDBRANCH   1  23
BRANCH   1  44
ATOM     44  C   UNL     1     -11.627  14.071  69.777  0.00  0.00    +0.048 C 
BRANCH  44  45
ATOM     45  C   UNL     1     -12.383  15.097  70.566  0.00  0.00    -0.020 A 
ATOM     46  C   UNL     1     -13.717  14.924  70.921  0.00  0.00    -0.004 A 
ATOM     47  C   UNL     1     -14.222  15.425  72.117  0.00  0.00    -0.000 A 
ATOM     48  C   UNL     1     -13.324  15.713  73.138  0.00  0.00    -0.000 A 
ATOM     49  C   UNL     1     -12.054  16.119  72.745  0.00  0.00    -0.000 A 
ATOM     50  C   UNL     1     -11.697  15.967  71.407  0.00  0.00    -0.004 A 
ENDBRANCH  44  45
ENDBRANCH   1  44
TORSDOF 18
ENDMDL
MODEL 9
REMARK VINA RESULT:      -7.5      2.893      3.890
REMARK  Name = 
REMARK  18 active torsions:
REMARK  status: ('A' for Active; 'I' for Inactive)
REMARK    1  A    between atoms: C_2  and  C_4
REMARK    2  A    between atoms: C_6  and  C_7
REMARK    3  A    between atoms: C_7  and  N_8
REMARK    4  A    between atoms: N_12  and  C_13
REMARK    5  A    between atoms: C_13  and  C_14
REMARK    6  A    between atoms: C_13  and  C_46
REMARK    7  A    between atoms: N_16  and  C_17
REMARK    8  A    between atoms: C_17  and  C_18
REMARK    9  A    between atoms: C_17  and  C_25
REMARK   10  A    between atoms: C_18  and  C_19
REMARK   11  A    between atoms: C_25  and  C_26
REMARK   12  A    between atoms: C_26  and  C_28
REMARK   13  A    between atoms: C_28  and  C_29
REMARK   14  A    between atoms: C_28  and  N_36
REMARK   15  A    between atoms: C_29  and  C_30
REMARK   16  A    between atoms: C_37  and  O_39
REMARK   17  A    between atoms: O_39  and  C_40
REMARK   18  A    between atoms: C_40  and  C_41
REMARK                            x       y       z     vdW  Elec       q    Type
REMARK                         _______ _______ _______ _____ _____    ______ ____
ROOT
ATOM      1  C   UNL     1     -11.285  14.252  68.418  0.00  0.00    +0.102 C 
ENDROOT
BRANCH   1   3
ATOM      2  C   UNL     1     -11.409  13.563  65.964  0.00  0.00    +0.261 C 
ATOM      3  N   UNL     1     -11.568  13.148  67.322  0.00  0.00    -0.205 NA
ATOM      4  O   UNL     1     -11.504  14.822  65.819  0.00  0.00    -0.271 OA
BRANCH   2   5
ATOM      5  C   UNL     1     -10.098  12.956  65.224  0.00  0.00    +0.174 C 
BRANCH   5   8
ATOM      6  N   UNL     1      -9.645   9.856  67.490  0.00  0.00    -0.255 N 
ATOM      7  C   UNL     1      -9.329  10.990  66.668  0.00  0.00    +0.324 C 
ATOM      8  N   UNL     1     -10.304  11.516  65.833  0.00  0.00    -0.181 NA
ATOM      9  O   UNL     1      -8.171  11.450  66.636  0.00  0.00    -0.251 OA
ATOM     10  C   UNL     1     -10.758   8.988  67.135  0.00  0.00    +0.117 C 
BRANCH   6  11
ATOM     11  C   UNL     1      -9.298  10.016  68.889  0.00  0.00    +0.141 C 
BRANCH  11  15
ATOM     12  C   UNL     1     -10.986   7.290  70.579  0.00  0.00    +0.088 A 
ATOM     13  S   UNL     1     -11.902   8.541  71.320  0.00  0.00    -0.071 S 
ATOM     14  C   UNL     1     -11.022   9.881  70.698  0.00  0.00    +0.053 A 
ATOM     15  C   UNL     1     -10.206   9.225  69.781  0.00  0.00    +0.086 A 
ATOM     16  N   UNL     1      -9.905   7.993  70.177  0.00  0.00    -0.245 NA
BRANCH  12  18
ATOM     17  C   UNL     1     -11.245   5.805  72.540  0.00  0.00    +0.007 C 
ATOM     18  C   UNL     1     -10.967   5.873  71.064  0.00  0.00    +0.047 C 
ATOM     19  C   UNL     1      -9.624   5.266  70.730  0.00  0.00    +0.007 C 
ENDBRANCH  12  18
ENDBRANCH  11  15
ENDBRANCH   6  11
ENDBRANCH   5   8
BRANCH   5  20
ATOM     20  C   UNL     1     -10.925  12.599  63.839  0.00  0.00    +0.029 C 
ATOM     21  C   UNL     1     -12.219  12.023  64.335  0.00  0.00    +0.002 C 
ATOM     22  C   UNL     1     -10.085  11.563  63.133  0.00  0.00    +0.002 C 
ENDBRANCH   5  20
ENDBRANCH   2   5
ENDBRANCH   1   3
BRANCH   1  23
ATOM     23  C   UNL     1      -9.686  13.975  68.642  0.00  0.00    +0.057 C 
BRANCH  23  24
ATOM     24  C   UNL     1      -9.134  15.331  69.363  0.00  0.00    +0.174 C 
ATOM     25  O   UNL     1      -9.819  16.243  68.363  0.00  0.00    -0.221 OA
BRANCH  24  26
ATOM     26  C   UNL     1      -7.647  15.213  68.497  0.00  0.00    +0.133 C 
BRANCH  26  27
ATOM     27  N   UNL     1      -7.174  16.686  68.734  0.00  0.00    -0.168 NA
ATOM     28  C   UNL     1      -6.465  17.293  67.683  0.00  0.00    +0.421 C 
ATOM     29  O   UNL     1      -6.486  16.875  66.495  0.00  0.00    -0.225 OA
BRANCH  28  30
ATOM     30  O   UNL     1      -6.262  18.655  67.735  0.00  0.00    -0.428 OA
BRANCH  30  31
ATOM     31  C   UNL     1      -7.078  19.580  68.251  0.00  0.00    +0.245 C 
BRANCH  31  32
ATOM     32  C   UNL     1      -8.442  19.768  67.862  0.00  0.00    +0.071 A 
ATOM     33  S   UNL     1      -8.890  19.587  66.210  0.00  0.00    -0.065 S 
ATOM     34  C   UNL     1     -10.591  19.732  66.417  0.00  0.00    +0.134 A 
ATOM     35  N   UNL     1     -10.670  19.380  67.715  0.00  0.00    -0.235 NA
ATOM     36  C   UNL     1      -9.665  19.780  68.450  0.00  0.00    +0.105 A 
ENDBRANCH  31  32
ENDBRANCH  30  31
ENDBRANCH  28  30
ENDBRANCH  26  27
BRANCH  26  37
ATOM     37  C   UNL     1      -6.841  14.659  69.806  0.00  0.00    +0.051 C 
BRANCH  37  38
ATOM     38  C   UNL     1      -6.177  13.445  69.235  0.00  0.00    -0.020 A 
ATOM     39  C   UNL     1      -5.901  12.362  70.030  0.00  0.00    -0.004 A 
ATOM     40  C   UNL     1      -5.168  11.285  69.574  0.00  0.00    -0.000 A 
ATOM     41  C   UNL     1      -4.313  11.474  68.494  0.00  0.00    -0.000 A 
ATOM     42  C   UNL     1      -4.609  12.544  67.668  0.00  0.00    -0.000 A 
ATOM     43  C   UNL     1      -5.597  13.469  67.972  0.00  0.00    -0.004 A 
ENDBRANCH  37  38
ENDBRANCH  26  37
ENDBRANCH  24  26
ENDBRANCH  23  24
ENDBRANCH   1  23
BRANCH   1  44
ATOM     44  C   UNL     1     -11.691  13.231  69.647  0.00  0.00    +0.048 C 
BRANCH  44  45
ATOM     45  C   UNL     1     -12.529  14.064  70.569  0.00  0.00    -0.020 A 
ATOM     46  C   UNL     1     -13.122  13.537  71.711  0.00  0.00    -0.004 A 
ATOM     47  C   UNL     1     -13.291  14.302  72.861  0.00  0.00    -0.000 A 
ATOM     48  C   UNL     1     -12.497  15.432  73.020  0.00  0.00    -0.000 A 
ATOM     49  C   UNL     1     -12.113  16.083  71.853  0.00  0.00    -0.000 A 
ATOM     50  C   UNL     1     -12.325  15.439  70.637  0.00  0.00    -0.004 A 
ENDBRANCH  44  45
ENDBRANCH   1  44
TORSDOF 18
ENDMDL
