MODEL 1
REMARK VINA RESULT:      -8.7      0.000      0.000
REMARK  Name = 
REMARK  6 active torsions:
REMARK  status: ('A' for Active; 'I' for Inactive)
REMARK    1  A    between atoms: C_2  and  C_4
REMARK    2  A    between atoms: C_4  and  O_6
REMARK    3  A    between atoms: O_6  and  C_7
REMARK    4  A    between atoms: C_7  and  C_8
REMARK    5  A    between atoms: C_8  and  C_10
REMARK    6  A    between atoms: C_12  and  C_13
REMARK                            x       y       z     vdW  Elec       q    Type
REMARK                         _______ _______ _______ _____ _____    ______ ____
ROOT
ATOM      1  C   UNL     1      -9.845  16.499  67.746  0.00  0.00    +0.174 C 
ATOM      2  C   UNL     1      -8.914  17.417  68.177  0.00  0.00    +0.034 C 
ATOM      3  C   UNL     1      -8.390  17.785  66.686  0.00  0.00    +0.005 C 
ATOM      4  C   UNL     1      -7.578  19.108  67.331  0.00  0.00    +0.004 C 
ATOM      5  C   UNL     1      -6.110  18.318  67.146  0.00  0.00    +0.038 C 
ATOM      6  C   UNL     1      -6.393  17.006  68.205  0.00  0.00    +0.153 C 
ATOM      7  O   UNL     1      -5.536  17.467  69.365  0.00  0.00    -0.223 OA
ATOM      8  C   UNL     1      -5.328  19.368  68.064  0.00  0.00    +0.036 C 
ATOM      9  C   UNL     1      -5.321  20.487  67.059  0.00  0.00    -0.038 C 
ATOM     10  C   UNL     1      -4.192  20.962  66.546  0.00  0.00    +0.034 C 
ATOM     11  C   UNL     1      -3.017  20.101  66.497  0.00  0.00    +0.195 C 
ATOM     12  C   UNL     1      -2.915  19.096  67.534  0.00  0.00    +0.038 C 
ATOM     13  O   UNL     1      -1.938  20.637  66.093  0.00  0.00    -0.287 OA
ATOM     14  C   UNL     1      -6.569  21.001  66.413  0.00  0.00    +0.022 C 
ATOM     15  C   UNL     1      -6.131  19.868  69.183  0.00  0.00    +0.009 C 
ATOM     16  C   UNL     1      -3.966  18.980  68.303  0.00  0.00    -0.020 C 
ATOM     17  C   UNL     1      -7.446  19.854  65.915  0.00  0.00    +0.004 C 
ATOM     18  C   UNL     1      -9.767  18.585  66.440  0.00  0.00    +0.033 C 
ATOM     19  C   UNL     1      -9.705  18.640  68.685  0.00  0.00    +0.003 C 
ATOM     20  C   UNL     1      -7.755  17.518  68.949  0.00  0.00    +0.036 C 
ATOM     21  C   UNL     1     -10.782  17.304  66.650  0.00  0.00    +0.149 C 
ATOM     22  O   UNL     1     -10.163  16.569  65.468  0.00  0.00    -0.330 OA
ATOM     23  C   UNL     1     -10.802  15.341  66.127  0.00  0.00    +0.235 C 
ATOM     24  O   UNL     1      -9.592  15.323  67.074  0.00  0.00    -0.326 OA
ENDROOT
BRANCH  23  25
ATOM     25  C   UNL     1     -10.146  14.240  65.063  0.00  0.00    +0.057 C 
ATOM     26  C   UNL     1      -9.512  13.349  66.134  0.00  0.00    +0.005 C 
ATOM     27  C   UNL     1      -9.998  11.958  66.168  0.00  0.00    +0.000 C 
ATOM     28  C   UNL     1     -11.463  11.742  66.259  0.00  0.00    +0.000 C 
ATOM     29  C   UNL     1     -12.174  12.850  65.546  0.00  0.00    +0.000 C 
ATOM     30  C   UNL     1     -11.256  13.425  64.507  0.00  0.00    +0.005 C 
ENDBRANCH  23  25
BRANCH   1  31
ATOM     31  C   UNL     1     -10.867  16.122  68.783  0.00  0.00    +0.221 C 
ATOM     32  O   UNL     1     -11.978  16.652  68.758  0.00  0.00    -0.290 OA
BRANCH  31  33
ATOM     33  C   UNL     1     -10.582  15.450  70.056  0.00  0.00    +0.275 C 
BRANCH  33  34
ATOM     34  O   UNL     1     -11.649  14.734  70.604  0.00  0.00    -0.440 OA
BRANCH  34  35
ATOM     35  C   UNL     1     -12.171  15.142  71.808  0.00  0.00    +0.317 C 
ATOM     36  O   UNL     1     -11.878  16.290  72.220  0.00  0.00    -0.250 OA
BRANCH  35  38
ATOM     37  C   UNL     1     -13.380  13.058  72.192  0.00  0.00    +0.012 C 
ATOM     38  C   UNL     1     -13.373  14.528  72.452  0.00  0.00    +0.099 C 
ATOM     39  C   UNL     1     -14.569  15.222  71.811  0.00  0.00    +0.012 C 
ENDBRANCH  35  38
ENDBRANCH  34  35
ENDBRANCH  33  34
ENDBRANCH  31  33
ENDBRANCH   1  31
TORSDOF 6
ENDMDL
MODEL 2
REMARK VINA RESULT:      -8.2      1.787      5.201
REMARK  Name = 
REMARK  6 active torsions:
REMARK  status: ('A' for Active; 'I' for Inactive)
REMARK    1  A    between atoms: C_2  and  C_4
REMARK    2  A    between atoms: C_4  and  O_6
REMARK    3  A    between atoms: O_6  and  C_7
REMARK    4  A    between atoms: C_7  and  C_8
REMARK    5  A    between atoms: C_8  and  C_10
REMARK    6  A    between atoms: C_12  and  C_13
REMARK                            x       y       z     vdW  Elec       q    Type
REMARK                         _______ _______ _______ _____ _____    ______ ____
ROOT
ATOM      1  C   UNL     1     -10.704  15.251  67.970  0.00  0.00    +0.174 C 
ATOM      2  C   UNL     1      -9.642  15.840  67.323  0.00  0.00    +0.034 C 
ATOM      3  C   UNL     1      -8.867  16.252  68.687  0.00  0.00    +0.005 C 
ATOM      4  C   UNL     1      -7.501  16.598  67.771  0.00  0.00    +0.004 C 
ATOM      5  C   UNL     1      -7.761  18.243  67.974  0.00  0.00    +0.038 C 
ATOM      6  C   UNL     1      -9.266  18.362  67.174  0.00  0.00    +0.153 C 
ATOM      7  O   UNL     1      -8.787  19.010  65.892  0.00  0.00    -0.223 OA
ATOM      8  C   UNL     1      -6.709  18.640  66.837  0.00  0.00    +0.036 C 
ATOM      9  C   UNL     1      -5.477  18.317  67.637  0.00  0.00    -0.038 C 
ATOM     10  C   UNL     1      -4.597  19.252  67.976  0.00  0.00    +0.034 C 
ATOM     11  C   UNL     1      -5.037  20.637  68.081  0.00  0.00    +0.195 C 
ATOM     12  C   UNL     1      -6.135  21.027  67.222  0.00  0.00    +0.038 C 
ATOM     13  O   UNL     1      -4.135  21.503  68.307  0.00  0.00    -0.287 OA
ATOM     14  C   UNL     1      -5.256  16.985  68.280  0.00  0.00    +0.022 C 
ATOM     15  C   UNL     1      -6.690  17.699  65.714  0.00  0.00    +0.009 C 
ATOM     16  C   UNL     1      -6.702  20.050  66.565  0.00  0.00    -0.020 C 
ATOM     17  C   UNL     1      -6.504  16.519  69.028  0.00  0.00    +0.004 C 
ATOM     18  C   UNL     1      -8.491  14.699  68.898  0.00  0.00    +0.033 C 
ATOM     19  C   UNL     1      -8.831  14.697  66.678  0.00  0.00    +0.003 C 
ATOM     20  C   UNL     1      -9.337  16.894  66.459  0.00  0.00    +0.036 C 
ATOM     21  C   UNL     1     -10.035  14.131  68.983  0.00  0.00    +0.149 C 
ATOM     22  O   UNL     1     -10.319  14.972  70.222  0.00  0.00    -0.330 OA
ATOM     23  C   UNL     1     -11.782  14.734  69.827  0.00  0.00    +0.235 C 
ATOM     24  O   UNL     1     -11.605  15.870  68.809  0.00  0.00    -0.326 OA
ENDROOT
BRANCH  23  25
ATOM     25  C   UNL     1     -12.419  15.721  71.008  0.00  0.00    +0.057 C 
ATOM     26  C   UNL     1     -13.885  15.439  70.672  0.00  0.00    +0.005 C 
ATOM     27  C   UNL     1     -14.675  14.827  71.754  0.00  0.00    +0.000 C 
ATOM     28  C   UNL     1     -14.145  13.590  72.380  0.00  0.00    +0.000 C 
ATOM     29  C   UNL     1     -12.648  13.630  72.368  0.00  0.00    +0.000 C 
ATOM     30  C   UNL     1     -12.202  15.062  72.321  0.00  0.00    +0.005 C 
ENDBRANCH  23  25
BRANCH   1  31
ATOM     31  C   UNL     1     -11.556  14.377  67.091  0.00  0.00    +0.221 C 
ATOM     32  O   UNL     1     -12.312  14.896  66.270  0.00  0.00    -0.290 OA
BRANCH  31  33
ATOM     33  C   UNL     1     -11.864  12.963  67.338  0.00  0.00    +0.275 C 
BRANCH  33  34
ATOM     34  O   UNL     1     -12.068  12.189  66.192  0.00  0.00    -0.440 OA
BRANCH  34  35
ATOM     35  C   UNL     1     -10.984  11.854  65.418  0.00  0.00    +0.317 C 
ATOM     36  O   UNL     1     -10.326  10.833  65.732  0.00  0.00    -0.250 OA
BRANCH  35  38
ATOM     37  C   UNL     1     -12.088  12.704  63.417  0.00  0.00    +0.012 C 
ATOM     38  C   UNL     1     -10.773  12.334  64.017  0.00  0.00    +0.099 C 
ATOM     39  C   UNL     1     -10.126  11.164  63.286  0.00  0.00    +0.012 C 
ENDBRANCH  35  38
ENDBRANCH  34  35
ENDBRANCH  33  34
ENDBRANCH  31  33
ENDBRANCH   1  31
TORSDOF 6
ENDMDL
MODEL 3
REMARK VINA RESULT:      -8.2      2.627      7.118
REMARK  Name = 
REMARK  6 active torsions:
REMARK  status: ('A' for Active; 'I' for Inactive)
REMARK    1  A    between atoms: C_2  and  C_4
REMARK    2  A    between atoms: C_4  and  O_6
REMARK    3  A    between atoms: O_6  and  C_7
REMARK    4  A    between atoms: C_7  and  C_8
REMARK    5  A    between atoms: C_8  and  C_10
REMARK    6  A    between atoms: C_12  and  C_13
REMARK                            x       y       z     vdW  Elec       q    Type
REMARK                         _______ _______ _______ _____ _____    ______ ____
ROOT
ATOM      1  C   UNL     1     -10.243  15.181  68.269  0.00  0.00    +0.174 C 
ATOM      2  C   UNL     1     -10.414  13.900  67.797  0.00  0.00    +0.034 C 
ATOM      3  C   UNL     1      -8.914  13.778  67.192  0.00  0.00    +0.005 C 
ATOM      4  C   UNL     1      -9.156  12.126  67.004  0.00  0.00    +0.004 C 
ATOM      5  C   UNL     1      -9.307  12.319  65.345  0.00  0.00    +0.038 C 
ATOM      6  C   UNL     1     -10.706  13.301  65.330  0.00  0.00    +0.153 C 
ATOM      7  O   UNL     1     -11.708  12.256  64.889  0.00  0.00    -0.223 OA
ATOM      8  C   UNL     1      -9.892  10.846  65.137  0.00  0.00    +0.036 C 
ATOM      9  C   UNL     1      -8.590  10.124  65.349  0.00  0.00    -0.038 C 
ATOM     10  C   UNL     1      -8.016   9.414  64.384  0.00  0.00    +0.034 C 
ATOM     11  C   UNL     1      -8.301   9.745  62.993  0.00  0.00    +0.195 C 
ATOM     12  C   UNL     1      -9.604  10.316  62.725  0.00  0.00    +0.038 C 
ATOM     13  O   UNL     1      -7.810   8.971  62.114  0.00  0.00    -0.287 OA
ATOM     14  C   UNL     1      -7.749  10.315  66.571  0.00  0.00    +0.022 C 
ATOM     15  C   UNL     1     -10.754  10.405  66.236  0.00  0.00    +0.009 C 
ATOM     16  C   UNL     1     -10.313  10.609  63.784  0.00  0.00    -0.020 C 
ATOM     17  C   UNL     1      -7.587  11.797  66.904  0.00  0.00    +0.004 C 
ATOM     18  C   UNL     1      -8.357  13.658  68.699  0.00  0.00    +0.033 C 
ATOM     19  C   UNL     1     -10.472  12.980  69.033  0.00  0.00    +0.003 C 
ATOM     20  C   UNL     1     -11.178  13.164  66.889  0.00  0.00    +0.036 C 
ATOM     21  C   UNL     1      -8.901  15.119  69.230  0.00  0.00    +0.149 C 
ATOM     22  O   UNL     1      -8.043  15.855  68.208  0.00  0.00    -0.330 OA
ATOM     23  C   UNL     1      -9.017  17.006  68.486  0.00  0.00    +0.235 C 
ATOM     24  O   UNL     1      -9.986  16.309  67.519  0.00  0.00    -0.326 OA
ENDROOT
BRANCH  23  25
ATOM     25  C   UNL     1      -8.387  18.020  67.324  0.00  0.00    +0.057 C 
ATOM     26  C   UNL     1      -9.575  17.914  66.365  0.00  0.00    +0.005 C 
ATOM     27  C   UNL     1     -10.272  19.180  66.080  0.00  0.00    +0.000 C 
ATOM     28  C   UNL     1     -10.739  19.986  67.235  0.00  0.00    +0.000 C 
ATOM     29  C   UNL     1      -9.796  19.800  68.383  0.00  0.00    +0.000 C 
ATOM     30  C   UNL     1      -8.450  19.408  67.846  0.00  0.00    +0.005 C 
ENDBRANCH  23  25
BRANCH   1  31
ATOM     31  C   UNL     1     -11.288  15.622  69.255  0.00  0.00    +0.221 C 
ATOM     32  O   UNL     1     -12.301  16.193  68.851  0.00  0.00    -0.290 OA
BRANCH  31  33
ATOM     33  C   UNL     1     -11.085  15.775  70.701  0.00  0.00    +0.275 C 
BRANCH  33  34
ATOM     34  O   UNL     1     -12.242  16.030  71.442  0.00  0.00    -0.440 OA
BRANCH  34  35
ATOM     35  C   UNL     1     -12.563  15.185  72.477  0.00  0.00    +0.317 C 
ATOM     36  O   UNL     1     -12.099  15.440  73.614  0.00  0.00    -0.250 OA
BRANCH  35  38
ATOM     37  C   UNL     1     -13.327  12.947  71.878  0.00  0.00    +0.012 C 
ATOM     38  C   UNL     1     -13.736  14.256  72.467  0.00  0.00    +0.099 C 
ATOM     39  C   UNL     1     -14.792  14.954  71.619  0.00  0.00    +0.012 C 
ENDBRANCH  35  38
ENDBRANCH  34  35
ENDBRANCH  33  34
ENDBRANCH  31  33
ENDBRANCH   1  31
TORSDOF 6
ENDMDL
MODEL 4
REMARK VINA RESULT:      -8.0      1.189      1.511
REMARK  Name = 
REMARK  6 active torsions:
REMARK  status: ('A' for Active; 'I' for Inactive)
REMARK    1  A    between atoms: C_2  and  C_4
REMARK    2  A    between atoms: C_4  and  O_6
REMARK    3  A    between atoms: O_6  and  C_7
REMARK    4  A    between atoms: C_7  and  C_8
REMARK    5  A    between atoms: C_8  and  C_10
REMARK    6  A    between atoms: C_12  and  C_13
REMARK                            x       y       z     vdW  Elec       q    Type
REMARK                         _______ _______ _______ _____ _____    ______ ____
ROOT
ATOM      1  C   UNL     1     -10.015  16.275  67.708  0.00  0.00    +0.174 C 
ATOM      2  C   UNL     1      -9.106  17.171  68.222  0.00  0.00    +0.034 C 
ATOM      3  C   UNL     1      -8.506  17.597  66.776  0.00  0.00    +0.005 C 
ATOM      4  C   UNL     1      -7.725  18.889  67.513  0.00  0.00    +0.004 C 
ATOM      5  C   UNL     1      -6.251  18.101  67.371  0.00  0.00    +0.038 C 
ATOM      6  C   UNL     1      -6.590  16.749  68.361  0.00  0.00    +0.153 C 
ATOM      7  O   UNL     1      -5.792  17.160  69.580  0.00  0.00    -0.223 OA
ATOM      8  C   UNL     1      -5.515  19.111  68.370  0.00  0.00    +0.036 C 
ATOM      9  C   UNL     1      -5.455  20.268  67.412  0.00  0.00    -0.038 C 
ATOM     10  C   UNL     1      -4.300  20.759  66.977  0.00  0.00    +0.034 C 
ATOM     11  C   UNL     1      -3.126  19.896  66.952  0.00  0.00    +0.195 C 
ATOM     12  C   UNL     1      -3.079  18.850  67.952  0.00  0.00    +0.038 C 
ATOM     13  O   UNL     1      -2.026  20.443  66.626  0.00  0.00    -0.287 OA
ATOM     14  C   UNL     1      -6.666  20.814  66.725  0.00  0.00    +0.022 C 
ATOM     15  C   UNL     1      -6.373  19.568  69.466  0.00  0.00    +0.009 C 
ATOM     16  C   UNL     1      -4.167  18.708  68.661  0.00  0.00    -0.020 C 
ATOM     17  C   UNL     1      -7.520  19.691  66.137  0.00  0.00    +0.004 C 
ATOM     18  C   UNL     1      -9.867  18.412  66.493  0.00  0.00    +0.033 C 
ATOM     19  C   UNL     1      -9.919  18.376  68.738  0.00  0.00    +0.003 C 
ATOM     20  C   UNL     1      -7.987  17.236  69.055  0.00  0.00    +0.036 C 
ATOM     21  C   UNL     1     -10.894  17.128  66.599  0.00  0.00    +0.149 C 
ATOM     22  O   UNL     1     -10.217  16.438  65.421  0.00  0.00    -0.330 OA
ATOM     23  C   UNL     1     -10.892  15.187  65.997  0.00  0.00    +0.235 C 
ATOM     24  O   UNL     1      -9.732  15.126  67.002  0.00  0.00    -0.326 OA
ENDROOT
BRANCH  23  25
ATOM     25  C   UNL     1     -10.185  14.127  64.924  0.00  0.00    +0.057 C 
ATOM     26  C   UNL     1      -9.474  13.284  65.985  0.00  0.00    +0.005 C 
ATOM     27  C   UNL     1      -9.867  11.864  66.032  0.00  0.00    +0.000 C 
ATOM     28  C   UNL     1     -11.313  11.553  66.152  0.00  0.00    +0.000 C 
ATOM     29  C   UNL     1     -12.108  12.609  65.449  0.00  0.00    +0.000 C 
ATOM     30  C   UNL     1     -11.249  13.239  64.391  0.00  0.00    +0.005 C 
ENDBRANCH  23  25
BRANCH   1  31
ATOM     31  C   UNL     1     -11.090  15.861  68.675  0.00  0.00    +0.221 C 
ATOM     32  O   UNL     1     -12.027  16.626  68.903  0.00  0.00    -0.290 OA
BRANCH  31  33
ATOM     33  C   UNL     1     -10.975  14.787  69.668  0.00  0.00    +0.275 C 
BRANCH  33  34
ATOM     34  O   UNL     1     -11.521  13.559  69.284  0.00  0.00    -0.440 OA
BRANCH  34  35
ATOM     35  C   UNL     1     -12.055  12.742  70.251  0.00  0.00    +0.317 C 
ATOM     36  O   UNL     1     -12.719  13.273  71.173  0.00  0.00    -0.250 OA
BRANCH  35  38
ATOM     37  C   UNL     1     -12.816  10.699  71.346  0.00  0.00    +0.012 C 
ATOM     38  C   UNL     1     -12.279  11.272  70.077  0.00  0.00    +0.099 C 
ATOM     39  C   UNL     1     -10.910  10.698  69.731  0.00  0.00    +0.012 C 
ENDBRANCH  35  38
ENDBRANCH  34  35
ENDBRANCH  33  34
ENDBRANCH  31  33
ENDBRANCH   1  31
TORSDOF 6
ENDMDL
MODEL 5
REMARK VINA RESULT:      -8.0      1.616      2.211
REMARK  Name = 
REMARK  6 active torsions:
REMARK  status: ('A' for Active; 'I' for Inactive)
REMARK    1  A    between atoms: C_2  and  C_4
REMARK    2  A    between atoms: C_4  and  O_6
REMARK    3  A    between atoms: O_6  and  C_7
REMARK    4  A    between atoms: C_7  and  C_8
REMARK    5  A    between atoms: C_8  and  C_10
REMARK    6  A    between atoms: C_12  and  C_13
REMARK                            x       y       z     vdW  Elec       q    Type
REMARK                         _______ _______ _______ _____ _____    ______ ____
ROOT
ATOM      1  C   UNL     1      -9.901  14.542  67.751  0.00  0.00    +0.174 C 
ATOM      2  C   UNL     1      -8.872  15.185  68.401  0.00  0.00    +0.034 C 
ATOM      3  C   UNL     1      -8.917  16.500  67.453  0.00  0.00    +0.005 C 
ATOM      4  C   UNL     1      -7.919  17.289  68.551  0.00  0.00    +0.004 C 
ATOM      5  C   UNL     1      -6.621  17.148  67.497  0.00  0.00    +0.038 C 
ATOM      6  C   UNL     1      -6.512  15.442  67.456  0.00  0.00    +0.153 C 
ATOM      7  O   UNL     1      -5.292  15.275  68.336  0.00  0.00    -0.223 OA
ATOM      8  C   UNL     1      -5.554  17.555  68.617  0.00  0.00    +0.036 C 
ATOM      9  C   UNL     1      -5.902  19.018  68.645  0.00  0.00    -0.038 C 
ATOM     10  C   UNL     1      -5.030  19.953  68.287  0.00  0.00    +0.034 C 
ATOM     11  C   UNL     1      -3.957  19.608  67.362  0.00  0.00    +0.195 C 
ATOM     12  C   UNL     1      -3.495  18.236  67.401  0.00  0.00    +0.038 C 
ATOM     13  O   UNL     1      -3.092  20.510  67.134  0.00  0.00    -0.287 OA
ATOM     14  C   UNL     1      -7.294  19.514  68.874  0.00  0.00    +0.022 C 
ATOM     15  C   UNL     1      -5.897  17.057  69.951  0.00  0.00    +0.009 C 
ATOM     16  C   UNL     1      -4.200  17.432  68.154  0.00  0.00    -0.020 C 
ATOM     17  C   UNL     1      -8.300  18.753  68.012  0.00  0.00    +0.004 C 
ATOM     18  C   UNL     1     -10.285  16.935  68.186  0.00  0.00    +0.033 C 
ATOM     19  C   UNL     1      -9.418  15.610  69.778  0.00  0.00    +0.003 C 
ATOM     20  C   UNL     1      -7.512  15.054  68.689  0.00  0.00    +0.036 C 
ATOM     21  C   UNL     1     -11.164  15.605  67.770  0.00  0.00    +0.149 C 
ATOM     22  O   UNL     1     -11.018  15.922  66.287  0.00  0.00    -0.330 OA
ATOM     23  C   UNL     1     -11.385  14.443  66.119  0.00  0.00    +0.235 C 
ATOM     24  O   UNL     1      -9.916  14.128  66.437  0.00  0.00    -0.326 OA
ENDROOT
BRANCH  23  25
ATOM     25  C   UNL     1     -11.164  14.420  64.467  0.00  0.00    +0.057 C 
ATOM     26  C   UNL     1     -10.067  13.353  64.473  0.00  0.00    +0.005 C 
ATOM     27  C   UNL     1     -10.383  12.118  63.735  0.00  0.00    +0.000 C 
ATOM     28  C   UNL     1     -11.647  11.418  64.072  0.00  0.00    +0.000 C 
ATOM     29  C   UNL     1     -12.678  12.424  64.482  0.00  0.00    +0.000 C 
ATOM     30  C   UNL     1     -12.339  13.746  63.858  0.00  0.00    +0.005 C 
ENDBRANCH  23  25
BRANCH   1  31
ATOM     31  C   UNL     1     -10.484  13.383  68.512  0.00  0.00    +0.221 C 
ATOM     32  O   UNL     1      -9.945  12.279  68.441  0.00  0.00    -0.290 OA
BRANCH  31  33
ATOM     33  C   UNL     1     -11.845  13.321  69.058  0.00  0.00    +0.275 C 
BRANCH  33  34
ATOM     34  O   UNL     1     -11.930  12.979  70.410  0.00  0.00    -0.440 OA
BRANCH  34  35
ATOM     35  C   UNL     1     -12.873  13.602  71.192  0.00  0.00    +0.317 C 
ATOM     36  O   UNL     1     -13.370  12.958  72.147  0.00  0.00    -0.250 OA
BRANCH  35  38
ATOM     37  C   UNL     1     -12.103  15.639  72.292  0.00  0.00    +0.012 C 
ATOM     38  C   UNL     1     -13.045  15.086  71.275  0.00  0.00    +0.099 C 
ATOM     39  C   UNL     1     -14.500  15.298  71.677  0.00  0.00    +0.012 C 
ENDBRANCH  35  38
ENDBRANCH  34  35
ENDBRANCH  33  34
ENDBRANCH  31  33
ENDBRANCH   1  31
TORSDOF 6
ENDMDL
MODEL 6
REMARK VINA RESULT:      -7.9      2.706      8.178
REMARK  Name = 
REMARK  6 active torsions:
REMARK  status: ('A' for Active; 'I' for Inactive)
REMARK    1  A    between atoms: C_2  and  C_4
REMARK    2  A    between atoms: C_4  and  O_6
REMARK    3  A    between atoms: O_6  and  C_7
REMARK    4  A    between atoms: C_7  and  C_8
REMARK    5  A    between atoms: C_8  and  C_10
REMARK    6  A    between atoms: C_12  and  C_13
REMARK                            x       y       z     vdW  Elec       q    Type
REMARK                         _______ _______ _______ _____ _____    ______ ____
ROOT
ATOM      1  C   UNL     1      -6.786  19.236  66.855  0.00  0.00    +0.174 C 
ATOM      2  C   UNL     1      -7.593  18.399  67.591  0.00  0.00    +0.034 C 
ATOM      3  C   UNL     1      -7.251  17.078  66.713  0.00  0.00    +0.005 C 
ATOM      4  C   UNL     1      -7.975  16.137  67.902  0.00  0.00    +0.004 C 
ATOM      5  C   UNL     1      -9.305  15.879  66.914  0.00  0.00    +0.038 C 
ATOM      6  C   UNL     1      -9.844  17.497  66.788  0.00  0.00    +0.153 C 
ATOM      7  O   UNL     1     -11.032  17.409  67.722  0.00  0.00    -0.223 OA
ATOM      8  C   UNL     1     -10.190  15.290  68.108  0.00  0.00    +0.036 C 
ATOM      9  C   UNL     1      -9.482  13.967  68.195  0.00  0.00    -0.038 C 
ATOM     10  C   UNL     1     -10.101  12.821  67.934  0.00  0.00    +0.034 C 
ATOM     11  C   UNL     1     -11.261  12.826  67.050  0.00  0.00    +0.195 C 
ATOM     12  C   UNL     1     -12.053  14.038  67.042  0.00  0.00    +0.038 C 
ATOM     13  O   UNL     1     -11.877  11.723  66.917  0.00  0.00    -0.287 OA
ATOM     14  C   UNL     1      -8.001  13.852  68.375  0.00  0.00    +0.022 C 
ATOM     15  C   UNL     1      -9.934  15.943  69.394  0.00  0.00    +0.009 C 
ATOM     16  C   UNL     1     -11.548  15.039  67.712  0.00  0.00    -0.020 C 
ATOM     17  C   UNL     1      -7.255  14.784  67.422  0.00  0.00    +0.004 C 
ATOM     18  C   UNL     1      -5.791  17.049  67.394  0.00  0.00    +0.033 C 
ATOM     19  C   UNL     1      -6.904  18.214  68.959  0.00  0.00    +0.003 C 
ATOM     20  C   UNL     1      -8.929  18.202  67.945  0.00  0.00    +0.036 C 
ATOM     21  C   UNL     1      -5.294  18.527  66.863  0.00  0.00    +0.149 C 
ATOM     22  O   UNL     1      -5.412  18.089  65.408  0.00  0.00    -0.330 OA
ATOM     23  C   UNL     1      -5.439  19.598  65.143  0.00  0.00    +0.235 C 
ATOM     24  O   UNL     1      -6.927  19.555  65.522  0.00  0.00    -0.326 OA
ENDROOT
BRANCH  23  25
ATOM     25  C   UNL     1      -5.722  19.459  63.507  0.00  0.00    +0.057 C 
ATOM     26  C   UNL     1      -6.131  20.918  63.295  0.00  0.00    +0.005 C 
ATOM     27  C   UNL     1      -5.284  21.684  62.364  0.00  0.00    +0.000 C 
ATOM     28  C   UNL     1      -3.820  21.693  62.612  0.00  0.00    +0.000 C 
ATOM     29  C   UNL     1      -3.412  20.387  63.220  0.00  0.00    +0.000 C 
ATOM     30  C   UNL     1      -4.408  19.336  62.825  0.00  0.00    +0.005 C 
ENDBRANCH  23  25
BRANCH   1  31
ATOM     31  C   UNL     1      -6.487  20.550  67.522  0.00  0.00    +0.221 C 
ATOM     32  O   UNL     1      -7.165  21.539  67.242  0.00  0.00    -0.290 OA
BRANCH  31  33
ATOM     33  C   UNL     1      -5.238  20.890  68.214  0.00  0.00    +0.275 C 
BRANCH  33  34
ATOM     34  O   UNL     1      -5.341  21.016  69.602  0.00  0.00    -0.440 OA
BRANCH  34  35
ATOM     35  C   UNL     1      -4.199  21.247  70.331  0.00  0.00    +0.317 C 
ATOM     36  O   UNL     1      -4.293  21.940  71.372  0.00  0.00    -0.250 OA
BRANCH  35  38
ATOM     37  C   UNL     1      -3.337  18.968  70.220  0.00  0.00    +0.012 C 
ATOM     38  C   UNL     1      -2.961  20.412  70.238  0.00  0.00    +0.099 C 
ATOM     39  C   UNL     1      -2.144  20.770  71.474  0.00  0.00    +0.012 C 
ENDBRANCH  35  38
ENDBRANCH  34  35
ENDBRANCH  33  34
ENDBRANCH  31  33
ENDBRANCH   1  31
TORSDOF 6
ENDMDL
MODEL 7
REMARK VINA RESULT:      -7.9      2.185      8.741
REMARK  Name = 
REMARK  6 active torsions:
REMARK  status: ('A' for Active; 'I' for Inactive)
REMARK    1  A    between atoms: C_2  and  C_4
REMARK    2  A    between atoms: C_4  and  O_6
REMARK    3  A    between atoms: O_6  and  C_7
REMARK    4  A    between atoms: C_7  and  C_8
REMARK    5  A    between atoms: C_8  and  C_10
REMARK    6  A    between atoms: C_12  and  C_13
REMARK                            x       y       z     vdW  Elec       q    Type
REMARK                         _______ _______ _______ _____ _____    ______ ____
ROOT
ATOM      1  C   UNL     1      -7.703  17.907  67.157  0.00  0.00    +0.174 C 
ATOM      2  C   UNL     1      -8.779  17.056  67.042  0.00  0.00    +0.034 C 
ATOM      3  C   UNL     1      -8.940  16.830  68.640  0.00  0.00    +0.005 C 
ATOM      4  C   UNL     1     -10.436  16.116  68.357  0.00  0.00    +0.004 C 
ATOM      5  C   UNL     1      -9.793  14.601  68.679  0.00  0.00    +0.038 C 
ATOM      6  C   UNL     1      -8.659  14.529  67.401  0.00  0.00    +0.153 C 
ATOM      7  O   UNL     1      -9.404  13.572  66.495  0.00  0.00    -0.223 OA
ATOM      8  C   UNL     1     -11.065  13.836  68.083  0.00  0.00    +0.036 C 
ATOM      9  C   UNL     1     -11.988  14.142  69.230  0.00  0.00    -0.038 C 
ATOM     10  C   UNL     1     -12.489  13.184  70.002  0.00  0.00    +0.034 C 
ATOM     11  C   UNL     1     -11.767  11.924  70.129  0.00  0.00    +0.195 C 
ATOM     12  C   UNL     1     -10.973  11.523  68.987  0.00  0.00    +0.038 C 
ATOM     13  O   UNL     1     -12.341  11.006  70.794  0.00  0.00    -0.287 OA
ATOM     14  C   UNL     1     -12.243  15.534  69.714  0.00  0.00    +0.022 C 
ATOM     15  C   UNL     1     -11.657  14.514  66.928  0.00  0.00    +0.009 C 
ATOM     16  C   UNL     1     -10.876  12.413  68.035  0.00  0.00    -0.020 C 
ATOM     17  C   UNL     1     -10.938  16.313  69.870  0.00  0.00    +0.004 C 
ATOM     18  C   UNL     1      -9.530  18.325  68.755  0.00  0.00    +0.033 C 
ATOM     19  C   UNL     1      -9.976  17.918  66.592  0.00  0.00    +0.003 C 
ATOM     20  C   UNL     1      -9.138  15.815  66.512  0.00  0.00    +0.036 C 
ATOM     21  C   UNL     1      -8.200  19.107  68.177  0.00  0.00    +0.149 C 
ATOM     22  O   UNL     1      -7.345  18.587  69.326  0.00  0.00    -0.330 OA
ATOM     23  C   UNL     1      -6.186  18.939  68.386  0.00  0.00    +0.235 C 
ATOM     24  O   UNL     1      -6.464  17.605  67.679  0.00  0.00    -0.326 OA
ENDROOT
BRANCH  23  25
ATOM     25  C   UNL     1      -4.997  18.314  69.372  0.00  0.00    +0.057 C 
ATOM     26  C   UNL     1      -3.839  18.584  68.409  0.00  0.00    +0.005 C 
ATOM     27  C   UNL     1      -2.793  19.489  68.916  0.00  0.00    +0.000 C 
ATOM     28  C   UNL     1      -3.220  20.812  69.438  0.00  0.00    +0.000 C 
ATOM     29  C   UNL     1      -4.578  20.687  70.055  0.00  0.00    +0.000 C 
ATOM     30  C   UNL     1      -4.784  19.266  70.491  0.00  0.00    +0.005 C 
ENDBRANCH  23  25
BRANCH   1  31
ATOM     31  C   UNL     1      -7.400  18.692  65.911  0.00  0.00    +0.221 C 
ATOM     32  O   UNL     1      -6.739  18.170  65.012  0.00  0.00    -0.290 OA
BRANCH  31  33
ATOM     33  C   UNL     1      -7.494  20.150  65.778  0.00  0.00    +0.275 C 
BRANCH  33  34
ATOM     34  O   UNL     1      -6.436  20.756  65.094  0.00  0.00    -0.440 OA
BRANCH  34  35
ATOM     35  C   UNL     1      -5.417  21.324  65.821  0.00  0.00    +0.317 C 
ATOM     36  O   UNL     1      -5.713  21.937  66.874  0.00  0.00    -0.250 OA
BRANCH  35  38
ATOM     37  C   UNL     1      -3.112  22.114  65.929  0.00  0.00    +0.012 C 
ATOM     38  C   UNL     1      -3.981  20.921  65.707  0.00  0.00    +0.099 C 
ATOM     39  C   UNL     1      -3.832  20.367  64.295  0.00  0.00    +0.012 C 
ENDBRANCH  35  38
ENDBRANCH  34  35
ENDBRANCH  33  34
ENDBRANCH  31  33
ENDBRANCH   1  31
TORSDOF 6
ENDMDL
MODEL 8
REMARK VINA RESULT:      -7.8      2.939      4.687
REMARK  Name = 
REMARK  6 active torsions:
REMARK  status: ('A' for Active; 'I' for Inactive)
REMARK    1  A    between atoms: C_2  and  C_4
REMARK    2  A    between atoms: C_4  and  O_6
REMARK    3  A    between atoms: O_6  and  C_7
REMARK    4  A    between atoms: C_7  and  C_8
REMARK    5  A    between atoms: C_8  and  C_10
REMARK    6  A    between atoms: C_12  and  C_13
REMARK                            x       y       z     vdW  Elec       q    Type
REMARK                         _______ _______ _______ _____ _____    ______ ____
ROOT
ATOM      1  C   UNL     1     -10.362  12.277  67.300  0.00  0.00    +0.174 C 
ATOM      2  C   UNL     1     -10.360  13.578  67.750  0.00  0.00    +0.034 C 
ATOM      3  C   UNL     1      -9.893  14.209  66.331  0.00  0.00    +0.005 C 
ATOM      4  C   UNL     1     -10.283  15.736  66.916  0.00  0.00    +0.004 C 
ATOM      5  C   UNL     1      -8.656  16.106  67.085  0.00  0.00    +0.038 C 
ATOM      6  C   UNL     1      -8.247  14.924  68.251  0.00  0.00    +0.153 C 
ATOM      7  O   UNL     1      -8.161  15.826  69.463  0.00  0.00    -0.223 OA
ATOM      8  C   UNL     1      -8.953  17.405  67.970  0.00  0.00    +0.036 C 
ATOM      9  C   UNL     1      -9.452  18.260  66.838  0.00  0.00    -0.038 C 
ATOM     10  C   UNL     1      -8.817  19.363  66.459  0.00  0.00    +0.034 C 
ATOM     11  C   UNL     1      -7.388  19.486  66.721  0.00  0.00    +0.195 C 
ATOM     12  C   UNL     1      -6.889  18.789  67.887  0.00  0.00    +0.038 C 
ATOM     13  O   UNL     1      -6.853  20.602  66.433  0.00  0.00    -0.287 OA
ATOM     14  C   UNL     1     -10.562  17.833  65.931  0.00  0.00    +0.022 C 
ATOM     15  C   UNL     1     -10.103  17.246  68.862  0.00  0.00    +0.009 C 
ATOM     16  C   UNL     1      -7.752  18.006  68.480  0.00  0.00    -0.020 C 
ATOM     17  C   UNL     1     -10.363  16.395  65.454  0.00  0.00    +0.004 C 
ATOM     18  C   UNL     1     -11.367  13.910  65.755  0.00  0.00    +0.033 C 
ATOM     19  C   UNL     1     -11.836  13.977  67.950  0.00  0.00    +0.003 C 
ATOM     20  C   UNL     1      -9.737  14.410  68.683  0.00  0.00    +0.036 C 
ATOM     21  C   UNL     1     -11.335  12.276  65.966  0.00  0.00    +0.149 C 
ATOM     22  O   UNL     1     -10.154  12.136  65.012  0.00  0.00    -0.330 OA
ATOM     23  C   UNL     1      -9.977  10.786  65.717  0.00  0.00    +0.235 C 
ATOM     24  O   UNL     1      -9.277  11.560  66.844  0.00  0.00    -0.326 OA
ENDROOT
BRANCH  23  25
ATOM     25  C   UNL     1      -8.559  10.394  64.935  0.00  0.00    +0.057 C 
ATOM     26  C   UNL     1      -7.669  10.474  66.177  0.00  0.00    +0.005 C 
ATOM     27  C   UNL     1      -6.982   9.224  66.545  0.00  0.00    +0.000 C 
ATOM     28  C   UNL     1      -7.811   8.003  66.704  0.00  0.00    +0.000 C 
ATOM     29  C   UNL     1      -8.970   8.064  65.758  0.00  0.00    +0.000 C 
ATOM     30  C   UNL     1      -8.606   8.948  64.601  0.00  0.00    +0.005 C 
ENDBRANCH  23  25
BRANCH   1  31
ATOM     31  C   UNL     1     -11.093  11.314  68.194  0.00  0.00    +0.221 C 
ATOM     32  O   UNL     1     -12.295  11.113  68.015  0.00  0.00    -0.290 OA
BRANCH  31  33
ATOM     33  C   UNL     1     -10.624  10.842  69.502  0.00  0.00    +0.275 C 
BRANCH  33  34
ATOM     34  O   UNL     1     -11.317   9.746  70.024  0.00  0.00    -0.440 OA
BRANCH  34  35
ATOM     35  C   UNL     1     -11.991   9.895  71.212  0.00  0.00    +0.317 C 
ATOM     36  O   UNL     1     -12.643  10.951  71.394  0.00  0.00    -0.250 OA
BRANCH  35  38
ATOM     37  C   UNL     1     -11.809   7.488  71.563  0.00  0.00    +0.012 C 
ATOM     38  C   UNL     1     -12.367   8.759  72.111  0.00  0.00    +0.099 C 
ATOM     39  C   UNL     1     -13.891   8.749  72.127  0.00  0.00    +0.012 C 
ENDBRANCH  35  38
ENDBRANCH  34  35
ENDBRANCH  33  34
ENDBRANCH  31  33
ENDBRANCH   1  31
TORSDOF 6
ENDMDL
MODEL 9
REMARK VINA RESULT:      -7.7      2.072      4.541
REMARK  Name = 
REMARK  6 active torsions:
REMARK  status: ('A' for Active; 'I' for Inactive)
REMARK    1  A    between atoms: C_2  and  C_4
REMARK    2  A    between atoms: C_4  and  O_6
REMARK    3  A    between atoms: O_6  and  C_7
REMARK    4  A    between atoms: C_7  and  C_8
REMARK    5  A    between atoms: C_8  and  C_10
REMARK    6  A    between atoms: C_12  and  C_13
REMARK                            x       y       z     vdW  Elec       q    Type
REMARK                         _______ _______ _______ _____ _____    ______ ____
ROOT
ATOM      1  C   UNL     1     -10.560  15.183  67.998  0.00  0.00    +0.174 C 
ATOM      2  C   UNL     1      -9.506  15.781  67.346  0.00  0.00    +0.034 C 
ATOM      3  C   UNL     1      -8.784  16.295  68.705  0.00  0.00    +0.005 C 
ATOM      4  C   UNL     1      -7.410  16.649  67.804  0.00  0.00    +0.004 C 
ATOM      5  C   UNL     1      -7.740  18.290  67.914  0.00  0.00    +0.038 C 
ATOM      6  C   UNL     1      -9.228  18.306  67.073  0.00  0.00    +0.153 C 
ATOM      7  O   UNL     1      -8.742  18.906  65.771  0.00  0.00    -0.223 OA
ATOM      8  C   UNL     1      -6.676  18.671  66.783  0.00  0.00    +0.036 C 
ATOM      9  C   UNL     1      -5.454  18.441  67.628  0.00  0.00    -0.038 C 
ATOM     10  C   UNL     1      -4.620  19.427  67.938  0.00  0.00    +0.034 C 
ATOM     11  C   UNL     1      -5.118  20.797  67.959  0.00  0.00    +0.195 C 
ATOM     12  C   UNL     1      -6.208  21.097  67.055  0.00  0.00    +0.038 C 
ATOM     13  O   UNL     1      -4.257  21.710  68.160  0.00  0.00    -0.287 OA
ATOM     14  C   UNL     1      -5.196  17.154  68.345  0.00  0.00    +0.022 C 
ATOM     15  C   UNL     1      -6.590  17.675  65.712  0.00  0.00    +0.009 C 
ATOM     16  C   UNL     1      -6.718  20.064  66.437  0.00  0.00    -0.020 C 
ATOM     17  C   UNL     1      -6.443  16.676  69.087  0.00  0.00    +0.004 C 
ATOM     18  C   UNL     1      -8.352  14.772  69.007  0.00  0.00    +0.033 C 
ATOM     19  C   UNL     1      -8.634  14.641  66.782  0.00  0.00    +0.003 C 
ATOM     20  C   UNL     1      -9.221  16.801  66.436  0.00  0.00    +0.036 C 
ATOM     21  C   UNL     1      -9.873  14.146  69.084  0.00  0.00    +0.149 C 
ATOM     22  O   UNL     1     -10.223  15.037  70.270  0.00  0.00    -0.330 OA
ATOM     23  C   UNL     1     -11.664  14.719  69.854  0.00  0.00    +0.235 C 
ATOM     24  O   UNL     1     -11.507  15.808  68.782  0.00  0.00    -0.326 OA
ENDROOT
BRANCH  23  25
ATOM     25  C   UNL     1     -12.370  15.739  70.966  0.00  0.00    +0.057 C 
ATOM     26  C   UNL     1     -13.815  15.381  70.609  0.00  0.00    +0.005 C 
ATOM     27  C   UNL     1     -14.609  14.794  71.702  0.00  0.00    +0.000 C 
ATOM     28  C   UNL     1     -14.048  13.613  72.404  0.00  0.00    +0.000 C 
ATOM     29  C   UNL     1     -12.554  13.712  72.427  0.00  0.00    +0.000 C 
ATOM     30  C   UNL     1     -12.163  15.157  72.316  0.00  0.00    +0.005 C 
ENDBRANCH  23  25
BRANCH   1  31
ATOM     31  C   UNL     1     -11.353  14.230  67.147  0.00  0.00    +0.221 C 
ATOM     32  O   UNL     1     -12.430  14.594  66.672  0.00  0.00    -0.290 OA
BRANCH  31  33
ATOM     33  C   UNL     1     -11.171  12.775  67.100  0.00  0.00    +0.275 C 
BRANCH  33  34
ATOM     34  O   UNL     1     -12.105  12.033  67.829  0.00  0.00    -0.440 OA
BRANCH  34  35
ATOM     35  C   UNL     1     -11.678  10.917  68.507  0.00  0.00    +0.317 C 
ATOM     36  O   UNL     1     -11.078  10.025  67.861  0.00  0.00    -0.250 OA
BRANCH  35  38
ATOM     37  C   UNL     1     -10.476   9.811  70.319  0.00  0.00    +0.012 C 
ATOM     38  C   UNL     1     -11.485  10.860  69.990  0.00  0.00    +0.099 C 
ATOM     39  C   UNL     1     -12.858  10.524  70.559  0.00  0.00    +0.012 C 
ENDBRANCH  35  38
ENDBRANCH  34  35
ENDBRANCH  33  34
ENDBRANCH  31  33
ENDBRANCH   1  31
TORSDOF 6
ENDMDL
