MODEL 1
REMARK VINA RESULT:      -7.6      0.000      0.000
REMARK  Name = 
REMARK  5 active torsions:
REMARK  status: ('A' for Active; 'I' for Inactive)
REMARK    1  A    between atoms: C_2  and  O_3
REMARK    2  A    between atoms: O_3  and  C_4
REMARK    3  A    between atoms: C_13  and  C_14
REMARK    4  A    between atoms: N_16  and  CA_17
REMARK    5  A    between atoms: CA_26  and  C_27
REMARK                            x       y       z     vdW  Elec       q    Type
REMARK                         _______ _______ _______ _____ _____    ______ ____
ROOT
ATOM      1  C   UNL     1     -11.292  15.321  68.940  0.00  0.00    +0.268 C 
ATOM      2  N   UNL     1     -10.081  15.962  68.584  0.00  0.00    -0.191 NA
ATOM      3  O   UNL     1     -12.154  16.150  69.370  0.00  0.00    -0.268 OA
ENDROOT
BRANCH   1   5
ATOM      4  C   UNL     1     -11.619  13.617  67.162  0.00  0.00    +0.143 A 
ATOM      5  C   UNL     1     -11.711  13.990  68.476  0.00  0.00    +0.089 A 
ATOM      6  C   UNL     1     -12.037  12.988  69.386  0.00  0.00    +0.007 A 
ATOM      7  C   UNL     1     -11.885  11.655  69.126  0.00  0.00    +0.000 A 
ATOM      8  C   UNL     1     -12.033  10.774  70.158  0.00  0.00    +0.000 A 
ATOM      9  C   UNL     1     -12.687  11.184  71.313  0.00  0.00    +0.000 A 
ATOM     10  C   UNL     1     -12.772  12.536  71.619  0.00  0.00    +0.000 A 
ATOM     11  C   UNL     1     -11.385  11.327  67.878  0.00  0.00    +0.003 A 
ATOM     12  C   UNL     1     -12.446  13.439  70.635  0.00  0.00    +0.000 A 
ATOM     13  C   UNL     1     -11.393  12.283  66.868  0.00  0.00    +0.037 A 
BRANCH   4  14
ATOM     14  O   UNL     1     -11.764  14.605  66.191  0.00  0.00    -0.475 OA
BRANCH  14  16
ATOM     15  C   UNL     1     -12.362  14.463  64.630  0.00  0.00    +0.051 C 
ATOM     16  C   UNL     1     -12.351  14.121  64.985  0.00  0.00    +0.206 C 
ENDBRANCH  14  16
ENDBRANCH   4  14
ENDBRANCH   1   5
BRANCH   2  17
ATOM     17  CA  UNL     1     -10.216  17.132  67.515  0.00  0.00    +0.200 C 
ATOM     18  C   UNL     1      -9.135  18.205  68.231  0.00  0.00    +0.153 C 
ATOM     19  S   UNL     1      -7.811  17.004  68.924  0.00  0.00    -0.118 S 
ATOM     20  C   UNL     1      -6.690  18.276  68.539  0.00  0.00    +0.068 C 
ATOM     21  CA  UNL     1      -7.111  18.840  67.040  0.00  0.00    +0.189 C 
ATOM     22  C   UNL     1      -5.298  17.687  68.350  0.00  0.00    +0.013 C 
ATOM     23  C   UNL     1      -6.578  19.412  69.468  0.00  0.00    +0.013 C 
ATOM     24  N   UNL     1      -8.449  18.018  66.897  0.00  0.00    -0.259 N 
ATOM     25  C   UNL     1      -8.917  16.676  66.666  0.00  0.00    +0.249 C 
ATOM     26  O   UNL     1      -9.179  16.146  65.537  0.00  0.00    -0.273 OA
BRANCH  21  27
ATOM     27  C   UNL     1      -7.885  20.181  67.575  0.00  0.00    +0.383 C 
ATOM     28  OXT UNL     1      -9.091  20.404  66.884  0.00  0.00    -0.244 OA
ATOM     29  O   UNL     1      -7.063  21.111  67.273  0.00  0.00    -0.244 OA
ENDBRANCH  21  27
ENDBRANCH   2  17
TORSDOF 5
ENDMDL
MODEL 2
REMARK VINA RESULT:      -7.3      1.610      2.044
REMARK  Name = 
REMARK  5 active torsions:
REMARK  status: ('A' for Active; 'I' for Inactive)
REMARK    1  A    between atoms: C_2  and  O_3
REMARK    2  A    between atoms: O_3  and  C_4
REMARK    3  A    between atoms: C_13  and  C_14
REMARK    4  A    between atoms: N_16  and  CA_17
REMARK    5  A    between atoms: CA_26  and  C_27
REMARK                            x       y       z     vdW  Elec       q    Type
REMARK                         _______ _______ _______ _____ _____    ______ ____
ROOT
ATOM      1  C   UNL     1     -10.746  15.923  68.646  0.00  0.00    +0.268 C 
ATOM      2  N   UNL     1      -9.334  15.996  68.570  0.00  0.00    -0.191 NA
ATOM      3  O   UNL     1     -11.298  16.922  68.088  0.00  0.00    -0.268 OA
ENDROOT
BRANCH   1   5
ATOM      4  C   UNL     1     -11.458  13.616  68.064  0.00  0.00    +0.143 A 
ATOM      5  C   UNL     1     -11.515  14.697  68.902  0.00  0.00    +0.089 A 
ATOM      6  C   UNL     1     -12.184  14.514  70.110  0.00  0.00    +0.007 A 
ATOM      7  C   UNL     1     -12.424  13.286  70.660  0.00  0.00    +0.000 A 
ATOM      8  C   UNL     1     -12.894  13.232  71.940  0.00  0.00    +0.000 A 
ATOM      9  C   UNL     1     -13.465  14.366  72.503  0.00  0.00    +0.000 A 
ATOM     10  C   UNL     1     -13.158  15.622  71.995  0.00  0.00    +0.000 A 
ATOM     11  C   UNL     1     -11.969  12.194  69.942  0.00  0.00    +0.003 A 
ATOM     12  C   UNL     1     -12.515  15.684  70.782  0.00  0.00    +0.000 A 
ATOM     13  C   UNL     1     -11.626  12.352  68.604  0.00  0.00    +0.037 A 
BRANCH   4  14
ATOM     14  O   UNL     1     -11.240  13.851  66.709  0.00  0.00    -0.475 OA
BRANCH  14  16
ATOM     15  C   UNL     1     -12.378  14.071  65.497  0.00  0.00    +0.051 C 
ATOM     16  C   UNL     1     -12.443  13.875  65.945  0.00  0.00    +0.206 C 
ENDBRANCH  14  16
ENDBRANCH   4  14
ENDBRANCH   1   5
BRANCH   2  17
ATOM     17  CA  UNL     1      -8.736  16.133  67.102  0.00  0.00    +0.200 C 
ATOM     18  C   UNL     1      -7.979  17.622  67.316  0.00  0.00    +0.153 C 
ATOM     19  S   UNL     1      -7.380  17.485  69.132  0.00  0.00    -0.118 S 
ATOM     20  C   UNL     1      -6.020  18.419  68.583  0.00  0.00    +0.068 C 
ATOM     21  CA  UNL     1      -5.559  17.773  67.130  0.00  0.00    +0.189 C 
ATOM     22  C   UNL     1      -4.831  18.178  69.505  0.00  0.00    +0.013 C 
ATOM     23  C   UNL     1      -6.188  19.873  68.432  0.00  0.00    +0.013 C 
ATOM     24  N   UNL     1      -6.773  16.779  66.970  0.00  0.00    -0.259 N 
ATOM     25  C   UNL     1      -7.284  15.544  67.503  0.00  0.00    +0.249 C 
ATOM     26  O   UNL     1      -7.047  14.371  67.066  0.00  0.00    -0.273 OA
BRANCH  21  27
ATOM     27  C   UNL     1      -6.260  18.925  66.200  0.00  0.00    +0.383 C 
ATOM     28  OXT UNL     1      -6.794  18.391  65.013  0.00  0.00    -0.244 OA
ATOM     29  O   UNL     1      -5.272  19.677  65.903  0.00  0.00    -0.244 OA
ENDBRANCH  21  27
ENDBRANCH   2  17
TORSDOF 5
ENDMDL
MODEL 3
REMARK VINA RESULT:      -7.3      2.217      7.404
REMARK  Name = 
REMARK  5 active torsions:
REMARK  status: ('A' for Active; 'I' for Inactive)
REMARK    1  A    between atoms: C_2  and  O_3
REMARK    2  A    between atoms: O_3  and  C_4
REMARK    3  A    between atoms: C_13  and  C_14
REMARK    4  A    between atoms: N_16  and  CA_17
REMARK    5  A    between atoms: CA_26  and  C_27
REMARK                            x       y       z     vdW  Elec       q    Type
REMARK                         _______ _______ _______ _____ _____    ______ ____
ROOT
ATOM      1  C   UNL     1      -7.443  17.284  66.610  0.00  0.00    +0.268 C 
ATOM      2  N   UNL     1      -8.479  16.364  66.900  0.00  0.00    -0.191 NA
ATOM      3  O   UNL     1      -7.292  17.442  65.359  0.00  0.00    -0.268 OA
ENDROOT
BRANCH   1   5
ATOM      4  C   UNL     1      -7.613  19.396  67.908  0.00  0.00    +0.143 A 
ATOM      5  C   UNL     1      -6.908  18.277  67.553  0.00  0.00    +0.089 A 
ATOM      6  C   UNL     1      -5.743  18.021  68.273  0.00  0.00    +0.007 A 
ATOM      7  C   UNL     1      -5.485  18.558  69.503  0.00  0.00    +0.000 A 
ATOM      8  C   UNL     1      -4.419  18.075  70.207  0.00  0.00    +0.000 A 
ATOM      9  C   UNL     1      -3.431  17.362  69.540  0.00  0.00    +0.000 A 
ATOM     10  C   UNL     1      -3.716  16.749  68.327  0.00  0.00    +0.000 A 
ATOM     11  C   UNL     1      -6.453  19.399  70.020  0.00  0.00    +0.003 A 
ATOM     12  C   UNL     1      -4.887  17.094  67.693  0.00  0.00    +0.000 A 
ATOM     13  C   UNL     1      -7.426  19.921  69.175  0.00  0.00    +0.037 A 
BRANCH   4  14
ATOM     14  O   UNL     1      -8.478  19.947  66.966  0.00  0.00    -0.475 OA
BRANCH  14  16
ATOM     15  C   UNL     1     -10.140  20.136  67.102  0.00  0.00    +0.051 C 
ATOM     16  C   UNL     1      -9.803  20.128  67.462  0.00  0.00    +0.206 C 
ENDBRANCH  14  16
ENDBRANCH   4  14
ENDBRANCH   1   5
BRANCH   2  17
ATOM     17  CA  UNL     1      -9.899  16.714  66.271  0.00  0.00    +0.200 C 
ATOM     18  C   UNL     1     -10.157  15.245  65.491  0.00  0.00    +0.153 C 
ATOM     19  S   UNL     1      -9.372  14.013  66.731  0.00  0.00    -0.118 S 
ATOM     20  C   UNL     1     -10.641  12.941  66.220  0.00  0.00    +0.068 C 
ATOM     21  CA  UNL     1     -12.028  13.844  66.163  0.00  0.00    +0.189 C 
ATOM     22  C   UNL     1     -10.902  11.906  67.308  0.00  0.00    +0.013 C 
ATOM     23  C   UNL     1     -10.479  12.225  64.945  0.00  0.00    +0.013 C 
ATOM     24  N   UNL     1     -11.352  15.246  66.417  0.00  0.00    -0.259 N 
ATOM     25  C   UNL     1     -10.739  16.017  67.465  0.00  0.00    +0.249 C 
ATOM     26  O   UNL     1     -11.323  16.833  68.250  0.00  0.00    -0.273 OA
BRANCH  21  27
ATOM     27  C   UNL     1     -12.037  14.039  64.536  0.00  0.00    +0.383 C 
ATOM     28  OXT UNL     1     -12.574  15.284  64.159  0.00  0.00    -0.244 OA
ATOM     29  O   UNL     1     -12.833  13.117  64.154  0.00  0.00    -0.244 OA
ENDBRANCH  21  27
ENDBRANCH   2  17
TORSDOF 5
ENDMDL
MODEL 4
REMARK VINA RESULT:      -7.2      1.724      2.518
REMARK  Name = 
REMARK  5 active torsions:
REMARK  status: ('A' for Active; 'I' for Inactive)
REMARK    1  A    between atoms: C_2  and  O_3
REMARK    2  A    between atoms: O_3  and  C_4
REMARK    3  A    between atoms: C_13  and  C_14
REMARK    4  A    between atoms: N_16  and  CA_17
REMARK    5  A    between atoms: CA_26  and  C_27
REMARK                            x       y       z     vdW  Elec       q    Type
REMARK                         _______ _______ _______ _____ _____    ______ ____
ROOT
ATOM      1  C   UNL     1      -9.310  15.294  68.262  0.00  0.00    +0.268 C 
ATOM      2  N   UNL     1      -9.234  16.581  67.675  0.00  0.00    -0.191 NA
ATOM      3  O   UNL     1      -8.314  15.063  69.016  0.00  0.00    -0.268 OA
ENDROOT
BRANCH   1   5
ATOM      4  C   UNL     1     -10.876  13.536  67.472  0.00  0.00    +0.143 A 
ATOM      5  C   UNL     1     -10.537  14.496  68.388  0.00  0.00    +0.089 A 
ATOM      6  C   UNL     1     -11.307  14.550  69.547  0.00  0.00    +0.007 A 
ATOM      7  C   UNL     1     -12.078  13.511  69.989  0.00  0.00    +0.000 A 
ATOM      8  C   UNL     1     -12.619  13.594  71.240  0.00  0.00    +0.000 A 
ATOM      9  C   UNL     1     -12.703  14.833  71.862  0.00  0.00    +0.000 A 
ATOM     10  C   UNL     1     -11.864  15.867  71.467  0.00  0.00    +0.000 A 
ATOM     11  C   UNL     1     -12.070  12.368  69.211  0.00  0.00    +0.003 A 
ATOM     12  C   UNL     1     -11.167  15.714  70.292  0.00  0.00    +0.000 A 
ATOM     13  C   UNL     1     -11.595  12.435  67.905  0.00  0.00    +0.037 A 
BRANCH   4  14
ATOM     14  O   UNL     1     -10.481  13.726  66.151  0.00  0.00    -0.475 OA
BRANCH  14  16
ATOM     15  C   UNL     1     -11.297  14.512  64.913  0.00  0.00    +0.051 C 
ATOM     16  C   UNL     1     -11.453  14.421  65.372  0.00  0.00    +0.206 C 
ENDBRANCH  14  16
ENDBRANCH   4  14
ENDBRANCH   1   5
BRANCH   2  17
ATOM     17  CA  UNL     1      -9.098  17.791  68.699  0.00  0.00    +0.200 C 
ATOM     18  C   UNL     1      -7.536  18.256  68.278  0.00  0.00    +0.153 C 
ATOM     19  S   UNL     1      -7.541  17.934  66.389  0.00  0.00    -0.118 S 
ATOM     20  C   UNL     1      -6.503  19.326  66.312  0.00  0.00    +0.068 C 
ATOM     21  CA  UNL     1      -7.159  20.461  67.324  0.00  0.00    +0.189 C 
ATOM     22  C   UNL     1      -6.590  19.951  64.926  0.00  0.00    +0.013 C 
ATOM     23  C   UNL     1      -5.079  19.153  66.642  0.00  0.00    +0.013 C 
ATOM     24  N   UNL     1      -8.271  19.536  67.951  0.00  0.00    -0.259 N 
ATOM     25  C   UNL     1      -9.527  18.917  67.620  0.00  0.00    +0.249 C 
ATOM     26  O   UNL     1     -10.688  19.409  67.799  0.00  0.00    -0.273 OA
BRANCH  21  27
ATOM     27  C   UNL     1      -6.118  20.207  68.563  0.00  0.00    +0.383 C 
ATOM     28  OXT UNL     1      -6.771  20.220  69.810  0.00  0.00    -0.244 OA
ATOM     29  O   UNL     1      -5.352  21.226  68.492  0.00  0.00    -0.244 OA
ENDBRANCH  21  27
ENDBRANCH   2  17
TORSDOF 5
ENDMDL
MODEL 5
REMARK VINA RESULT:      -7.1      1.954      3.667
REMARK  Name = 
REMARK  5 active torsions:
REMARK  status: ('A' for Active; 'I' for Inactive)
REMARK    1  A    between atoms: C_2  and  O_3
REMARK    2  A    between atoms: O_3  and  C_4
REMARK    3  A    between atoms: C_13  and  C_14
REMARK    4  A    between atoms: N_16  and  CA_17
REMARK    5  A    between atoms: CA_26  and  C_27
REMARK                            x       y       z     vdW  Elec       q    Type
REMARK                         _______ _______ _______ _____ _____    ______ ____
ROOT
ATOM      1  C   UNL     1     -11.888  13.724  68.471  0.00  0.00    +0.268 C 
ATOM      2  N   UNL     1     -11.315  14.991  68.202  0.00  0.00    -0.191 NA
ATOM      3  O   UNL     1     -11.915  12.991  67.435  0.00  0.00    -0.268 OA
ENDROOT
BRANCH   1   5
ATOM      4  C   UNL     1     -12.695  13.751  70.821  0.00  0.00    +0.143 A 
ATOM      5  C   UNL     1     -12.020  13.125  69.807  0.00  0.00    +0.089 A 
ATOM      6  C   UNL     1     -11.630  11.809  70.040  0.00  0.00    +0.007 A 
ATOM      7  C   UNL     1     -12.193  11.014  70.999  0.00  0.00    +0.000 A 
ATOM      8  C   UNL     1     -11.885   9.684  70.998  0.00  0.00    +0.000 A 
ATOM      9  C   UNL     1     -10.761   9.247  70.309  0.00  0.00    +0.000 A 
ATOM     10  C   UNL     1     -10.235  10.017  69.280  0.00  0.00    +0.000 A 
ATOM     11  C   UNL     1     -13.195  11.588  71.760  0.00  0.00    +0.003 A 
ATOM     12  C   UNL     1     -10.678  11.313  69.157  0.00  0.00    +0.000 A 
ATOM     13  C   UNL     1     -13.338  12.972  71.767  0.00  0.00    +0.037 A 
BRANCH   4  14
ATOM     14  O   UNL     1     -12.692  15.144  70.844  0.00  0.00    -0.475 OA
BRANCH  14  16
ATOM     15  C   UNL     1     -11.875  16.084  71.968  0.00  0.00    +0.051 C 
ATOM     16  C   UNL     1     -11.713  15.685  71.727  0.00  0.00    +0.206 C 
ENDBRANCH  14  16
ENDBRANCH   4  14
ENDBRANCH   1   5
BRANCH   2  17
ATOM     17  CA  UNL     1      -9.850  14.960  67.581  0.00  0.00    +0.200 C 
ATOM     18  C   UNL     1      -9.868  16.503  66.910  0.00  0.00    +0.153 C 
ATOM     19  S   UNL     1     -10.882  17.474  68.215  0.00  0.00    -0.118 S 
ATOM     20  C   UNL     1      -9.833  18.799  67.807  0.00  0.00    +0.068 C 
ATOM     21  CA  UNL     1      -8.301  18.178  67.717  0.00  0.00    +0.189 C 
ATOM     22  C   UNL     1      -9.781  19.783  68.969  0.00  0.00    +0.013 C 
ATOM     23  C   UNL     1     -10.117  19.561  66.581  0.00  0.00    +0.013 C 
ATOM     24  N   UNL     1      -8.702  16.660  67.858  0.00  0.00    -0.259 N 
ATOM     25  C   UNL     1      -9.166  15.714  68.838  0.00  0.00    +0.249 C 
ATOM     26  O   UNL     1      -8.444  14.968  69.577  0.00  0.00    -0.273 OA
BRANCH  21  27
ATOM     27  C   UNL     1      -8.242  18.106  66.081  0.00  0.00    +0.383 C 
ATOM     28  OXT UNL     1      -7.468  17.020  65.630  0.00  0.00    -0.244 OA
ATOM     29  O   UNL     1      -7.641  19.191  65.780  0.00  0.00    -0.244 OA
ENDBRANCH  21  27
ENDBRANCH   2  17
TORSDOF 5
ENDMDL
MODEL 6
REMARK VINA RESULT:      -7.1      2.167      7.739
REMARK  Name = 
REMARK  5 active torsions:
REMARK  status: ('A' for Active; 'I' for Inactive)
REMARK    1  A    between atoms: C_2  and  O_3
REMARK    2  A    between atoms: O_3  and  C_4
REMARK    3  A    between atoms: C_13  and  C_14
REMARK    4  A    between atoms: N_16  and  CA_17
REMARK    5  A    between atoms: CA_26  and  C_27
REMARK                            x       y       z     vdW  Elec       q    Type
REMARK                         _______ _______ _______ _____ _____    ______ ____
ROOT
ATOM      1  C   UNL     1      -6.571  17.064  67.158  0.00  0.00    +0.268 C 
ATOM      2  N   UNL     1      -7.893  16.606  67.376  0.00  0.00    -0.191 NA
ATOM      3  O   UNL     1      -5.850  16.174  66.608  0.00  0.00    -0.268 OA
ENDROOT
BRANCH   1   5
ATOM      4  C   UNL     1      -6.472  19.297  66.075  0.00  0.00    +0.143 A 
ATOM      5  C   UNL     1      -6.161  18.475  67.125  0.00  0.00    +0.089 A 
ATOM      6  C   UNL     1      -5.608  19.084  68.249  0.00  0.00    +0.007 A 
ATOM      7  C   UNL     1      -5.719  20.420  68.514  0.00  0.00    +0.000 A 
ATOM      8  C   UNL     1      -5.325  20.870  69.742  0.00  0.00    +0.000 A 
ATOM      9  C   UNL     1      -4.495  20.075  70.522  0.00  0.00    +0.000 A 
ATOM     10  C   UNL     1      -4.442  18.705  70.305  0.00  0.00    +0.000 A 
ATOM     11  C   UNL     1      -6.420  21.172  67.589  0.00  0.00    +0.003 A 
ATOM     12  C   UNL     1      -5.003  18.216  69.149  0.00  0.00    +0.000 A 
ATOM     13  C   UNL     1      -6.663  20.645  66.325  0.00  0.00    +0.037 A 
BRANCH   4  14
ATOM     14  O   UNL     1      -6.574  18.727  64.808  0.00  0.00    -0.475 OA
BRANCH  14  16
ATOM     15  C   UNL     1      -5.395  18.843  63.621  0.00  0.00    +0.051 C 
ATOM     16  C   UNL     1      -5.582  19.203  63.901  0.00  0.00    +0.206 C 
ENDBRANCH  14  16
ENDBRANCH   4  14
ENDBRANCH   1   5
BRANCH   2  17
ATOM     17  CA  UNL     1      -8.656  16.085  66.080  0.00  0.00    +0.200 C 
ATOM     18  C   UNL     1      -9.314  14.694  66.763  0.00  0.00    +0.153 C 
ATOM     19  S   UNL     1      -9.696  15.289  68.544  0.00  0.00    -0.118 S 
ATOM     20  C   UNL     1     -11.069  14.228  68.430  0.00  0.00    +0.068 C 
ATOM     21  CA  UNL     1     -11.730  14.469  66.931  0.00  0.00    +0.189 C 
ATOM     22  C   UNL     1     -12.148  14.685  69.403  0.00  0.00    +0.013 C 
ATOM     23  C   UNL     1     -10.855  12.787  68.636  0.00  0.00    +0.013 C 
ATOM     24  N   UNL     1     -10.590  15.402  66.369  0.00  0.00    -0.259 N 
ATOM     25  C   UNL     1     -10.074  16.740  66.499  0.00  0.00    +0.249 C 
ATOM     26  O   UNL     1     -10.414  17.756  65.811  0.00  0.00    -0.273 OA
BRANCH  21  27
ATOM     27  C   UNL     1     -11.093  13.124  66.246  0.00  0.00    +0.383 C 
ATOM     28  OXT UNL     1     -10.713  13.344  64.909  0.00  0.00    -0.244 OA
ATOM     29  O   UNL     1     -12.081  12.314  66.263  0.00  0.00    -0.244 OA
ENDBRANCH  21  27
ENDBRANCH   2  17
TORSDOF 5
ENDMDL
MODEL 7
REMARK VINA RESULT:      -7.0      2.398      3.236
REMARK  Name = 
REMARK  5 active torsions:
REMARK  status: ('A' for Active; 'I' for Inactive)
REMARK    1  A    between atoms: C_2  and  O_3
REMARK    2  A    between atoms: O_3  and  C_4
REMARK    3  A    between atoms: C_13  and  C_14
REMARK    4  A    between atoms: N_16  and  CA_17
REMARK    5  A    between atoms: CA_26  and  C_27
REMARK                            x       y       z     vdW  Elec       q    Type
REMARK                         _______ _______ _______ _____ _____    ______ ____
ROOT
ATOM      1  C   UNL     1     -10.038  13.360  68.058  0.00  0.00    +0.268 C 
ATOM      2  N   UNL     1      -9.491  14.632  67.760  0.00  0.00    -0.191 NA
ATOM      3  O   UNL     1     -10.966  13.439  68.922  0.00  0.00    -0.268 OA
ENDROOT
BRANCH   1   5
ATOM      4  C   UNL     1     -10.791  11.919  66.179  0.00  0.00    +0.143 A 
ATOM      5  C   UNL     1      -9.918  12.169  67.204  0.00  0.00    +0.089 A 
ATOM      6  C   UNL     1      -8.797  11.346  67.282  0.00  0.00    +0.007 A 
ATOM      7  C   UNL     1      -8.329  10.609  66.230  0.00  0.00    +0.000 A 
ATOM      8  C   UNL     1      -7.109  10.009  66.354  0.00  0.00    +0.000 A 
ATOM      9  C   UNL     1      -6.563   9.836  67.619  0.00  0.00    +0.000 A 
ATOM     10  C   UNL     1      -6.981  10.639  68.672  0.00  0.00    +0.000 A 
ATOM     11  C   UNL     1      -9.040  10.709  65.048  0.00  0.00    +0.003 A 
ATOM     12  C   UNL     1      -8.115  11.395  68.491  0.00  0.00    +0.000 A 
ATOM     13  C   UNL     1     -10.326  11.237  65.068  0.00  0.00    +0.037 A 
BRANCH   4  14
ATOM     14  O   UNL     1     -12.104  12.363  66.317  0.00  0.00    -0.475 OA
BRANCH  14  16
ATOM     15  C   UNL     1     -12.852  13.562  65.413  0.00  0.00    +0.051 C 
ATOM     16  C   UNL     1     -12.511  13.237  65.267  0.00  0.00    +0.206 C 
ENDBRANCH  14  16
ENDBRANCH   4  14
ENDBRANCH   1   5
BRANCH   2  17
ATOM     17  CA  UNL     1     -10.535  15.725  67.265  0.00  0.00    +0.200 C 
ATOM     18  C   UNL     1      -9.771  17.070  67.929  0.00  0.00    +0.153 C 
ATOM     19  S   UNL     1      -7.925  16.606  67.707  0.00  0.00    -0.118 S 
ATOM     20  C   UNL     1      -7.694  18.310  67.456  0.00  0.00    +0.068 C 
ATOM     21  CA  UNL     1      -8.919  18.811  66.461  0.00  0.00    +0.189 C 
ATOM     22  C   UNL     1      -6.424  18.538  66.646  0.00  0.00    +0.013 C 
ATOM     23  C   UNL     1      -7.642  19.188  68.636  0.00  0.00    +0.013 C 
ATOM     24  N   UNL     1      -9.735  17.462  66.470  0.00  0.00    -0.259 N 
ATOM     25  C   UNL     1      -9.685  16.122  65.947  0.00  0.00    +0.249 C 
ATOM     26  O   UNL     1     -10.185  15.715  64.849  0.00  0.00    -0.273 OA
BRANCH  21  27
ATOM     27  C   UNL     1      -9.836  19.480  67.643  0.00  0.00    +0.383 C 
ATOM     28  OXT UNL     1     -11.206  19.218  67.459  0.00  0.00    -0.244 OA
ATOM     29  O   UNL     1      -9.632  20.730  67.474  0.00  0.00    -0.244 OA
ENDBRANCH  21  27
ENDBRANCH   2  17
TORSDOF 5
ENDMDL
MODEL 8
REMARK VINA RESULT:      -7.0      2.042      3.705
REMARK  Name = 
REMARK  5 active torsions:
REMARK  status: ('A' for Active; 'I' for Inactive)
REMARK    1  A    between atoms: C_2  and  O_3
REMARK    2  A    between atoms: O_3  and  C_4
REMARK    3  A    between atoms: C_13  and  C_14
REMARK    4  A    between atoms: N_16  and  CA_17
REMARK    5  A    between atoms: CA_26  and  C_27
REMARK                            x       y       z     vdW  Elec       q    Type
REMARK                         _______ _______ _______ _____ _____    ______ ____
ROOT
ATOM      1  C   UNL     1      -9.057  14.350  67.510  0.00  0.00    +0.268 C 
ATOM      2  N   UNL     1      -8.657  15.673  67.204  0.00  0.00    -0.191 NA
ATOM      3  O   UNL     1      -8.467  13.908  68.545  0.00  0.00    -0.268 OA
ENDROOT
BRANCH   1   5
ATOM      4  C   UNL     1     -11.525  14.254  67.245  0.00  0.00    +0.143 A 
ATOM      5  C   UNL     1     -10.288  13.708  67.028  0.00  0.00    +0.089 A 
ATOM      6  C   UNL     1     -10.232  12.618  66.162  0.00  0.00    +0.007 A 
ATOM      7  C   UNL     1     -11.211  12.325  65.255  0.00  0.00    +0.000 A 
ATOM      8  C   UNL     1     -10.956  11.365  64.318  0.00  0.00    +0.000 A 
ATOM      9  C   UNL     1      -9.915  10.470  64.527  0.00  0.00    +0.000 A 
ATOM     10  C   UNL     1      -8.878  10.801  65.389  0.00  0.00    +0.000 A 
ATOM     11  C   UNL     1     -12.301  13.177  65.232  0.00  0.00    +0.003 A 
ATOM     12  C   UNL     1      -9.052  11.886  66.215  0.00  0.00    +0.000 A 
ATOM     13  C   UNL     1     -12.518  14.034  66.305  0.00  0.00    +0.037 A 
BRANCH   4  14
ATOM     14  O   UNL     1     -11.716  14.997  68.407  0.00  0.00    -0.475 OA
BRANCH  14  16
ATOM     15  C   UNL     1     -12.134  14.460  69.940  0.00  0.00    +0.051 C 
ATOM     16  C   UNL     1     -12.104  14.199  69.523  0.00  0.00    +0.206 C 
ENDBRANCH  14  16
ENDBRANCH   4  14
ENDBRANCH   1   5
BRANCH   2  17
ATOM     17  CA  UNL     1      -8.853  16.734  68.374  0.00  0.00    +0.200 C 
ATOM     18  C   UNL     1      -7.428  17.595  68.126  0.00  0.00    +0.153 C 
ATOM     19  S   UNL     1      -7.278  17.537  66.216  0.00  0.00    -0.118 S 
ATOM     20  C   UNL     1      -6.595  19.127  66.383  0.00  0.00    +0.068 C 
ATOM     21  CA  UNL     1      -7.541  19.935  67.475  0.00  0.00    +0.189 C 
ATOM     22  C   UNL     1      -6.769  19.896  65.080  0.00  0.00    +0.013 C 
ATOM     23  C   UNL     1      -5.185  19.240  66.791  0.00  0.00    +0.013 C 
ATOM     24  N   UNL     1      -8.429  18.706  67.904  0.00  0.00    -0.259 N 
ATOM     25  C   UNL     1      -9.489  17.866  67.411  0.00  0.00    +0.249 C 
ATOM     26  O   UNL     1     -10.740  18.053  67.564  0.00  0.00    -0.273 OA
BRANCH  21  27
ATOM     27  C   UNL     1      -6.522  19.761  68.746  0.00  0.00    +0.383 C 
ATOM     28  OXT UNL     1      -7.217  19.628  69.963  0.00  0.00    -0.244 OA
ATOM     29  O   UNL     1      -5.896  20.874  68.751  0.00  0.00    -0.244 OA
ENDBRANCH  21  27
ENDBRANCH   2  17
TORSDOF 5
ENDMDL
MODEL 9
REMARK VINA RESULT:      -6.7      1.743      3.331
REMARK  Name = 
REMARK  5 active torsions:
REMARK  status: ('A' for Active; 'I' for Inactive)
REMARK    1  A    between atoms: C_2  and  O_3
REMARK    2  A    between atoms: O_3  and  C_4
REMARK    3  A    between atoms: C_13  and  C_14
REMARK    4  A    between atoms: N_16  and  CA_17
REMARK    5  A    between atoms: CA_26  and  C_27
REMARK                            x       y       z     vdW  Elec       q    Type
REMARK                         _______ _______ _______ _____ _____    ______ ____
ROOT
ATOM      1  C   UNL     1     -10.753  15.065  67.169  0.00  0.00    +0.268 C 
ATOM      2  N   UNL     1      -9.802  16.105  67.306  0.00  0.00    -0.191 NA
ATOM      3  O   UNL     1     -11.329  15.101  66.038  0.00  0.00    -0.268 OA
ENDROOT
BRANCH   1   5
ATOM      4  C   UNL     1     -11.286  13.819  69.251  0.00  0.00    +0.143 A 
ATOM      5  C   UNL     1     -10.783  13.837  67.978  0.00  0.00    +0.089 A 
ATOM      6  C   UNL     1     -10.477  12.602  67.411  0.00  0.00    +0.007 A 
ATOM      7  C   UNL     1     -10.992  11.419  67.861  0.00  0.00    +0.000 A 
ATOM      8  C   UNL     1     -10.795  10.300  67.104  0.00  0.00    +0.000 A 
ATOM      9  C   UNL     1      -9.795  10.298  66.140  0.00  0.00    +0.000 A 
ATOM     10  C   UNL     1      -9.327  11.500  65.624  0.00  0.00    +0.000 A 
ATOM     11  C   UNL     1     -11.851  11.496  68.942  0.00  0.00    +0.003 A 
ATOM     12  C   UNL     1      -9.674  12.658  66.279  0.00  0.00    +0.000 A 
ATOM     13  C   UNL     1     -11.879  12.655  69.710  0.00  0.00    +0.037 A 
BRANCH   4  14
ATOM     14  O   UNL     1     -11.167  14.975  70.017  0.00  0.00    -0.475 OA
BRANCH  14  16
ATOM     15  C   UNL     1     -12.391  15.773  70.842  0.00  0.00    +0.051 C 
ATOM     16  C   UNL     1     -12.424  15.505  70.429  0.00  0.00    +0.206 C 
ENDBRANCH  14  16
ENDBRANCH   4  14
ENDBRANCH   1   5
BRANCH   2  17
ATOM     17  CA  UNL     1      -8.678  16.154  66.181  0.00  0.00    +0.200 C 
ATOM     18  C   UNL     1      -8.283  17.783  66.343  0.00  0.00    +0.153 C 
ATOM     19  S   UNL     1      -8.470  18.033  68.233  0.00  0.00    -0.118 S 
ATOM     20  C   UNL     1      -7.143  19.142  68.055  0.00  0.00    +0.068 C 
ATOM     21  CA  UNL     1      -6.044  18.407  67.059  0.00  0.00    +0.189 C 
ATOM     22  C   UNL     1      -6.418  19.287  69.386  0.00  0.00    +0.013 C 
ATOM     23  C   UNL     1      -7.428  20.493  67.545  0.00  0.00    +0.013 C 
ATOM     24  N   UNL     1      -6.939  17.170  66.667  0.00  0.00    -0.259 N 
ATOM     25  C   UNL     1      -7.454  15.944  67.218  0.00  0.00    +0.249 C 
ATOM     26  O   UNL     1      -6.904  14.796  67.164  0.00  0.00    -0.273 OA
BRANCH  21  27
ATOM     27  C   UNL     1      -6.449  19.244  65.710  0.00  0.00    +0.383 C 
ATOM     28  OXT UNL     1      -6.310  18.466  64.546  0.00  0.00    -0.244 OA
ATOM     29  O   UNL     1      -5.572  20.172  65.689  0.00  0.00    -0.244 OA
ENDBRANCH  21  27
ENDBRANCH   2  17
TORSDOF 5
ENDMDL
