MODEL 1
REMARK VINA RESULT:      -6.7      0.000      0.000
REMARK  Name = 
REMARK  5 active torsions:
REMARK  status: ('A' for Active; 'I' for Inactive)
REMARK    1  A    between atoms: C_6  and  O_7
REMARK    2  A    between atoms: O_7  and  C_8
REMARK    3  A    between atoms: C_8  and  C_10
REMARK    4  A    between atoms: C_10  and  C_11
REMARK    5  A    between atoms: C_10  and  C_13
REMARK                            x       y       z     vdW  Elec       q    Type
REMARK                         _______ _______ _______ _____ _____    ______ ____
ROOT
ATOM      1  O   UNL     1      -9.868  17.023  65.673  0.00  0.00    -0.452 OA
ENDROOT
BRANCH   1   9
ATOM      2  C   UNL     1      -8.049  19.556  69.121  0.00  0.00    +0.170 C 
ATOM      3  N   UNL     1      -8.205  19.645  67.737  0.00  0.00    +0.302 N 
ATOM      4  C   UNL     1      -8.138  18.084  67.321  0.00  0.00    +0.093 C 
ATOM      5  C   UNL     1      -9.113  18.826  66.281  0.00  0.00    +0.197 C 
ATOM      6  C   UNL     1      -9.785  18.930  68.022  0.00  0.00    +0.197 C 
ATOM      7  O   UNL     1      -8.334  19.664  67.449  0.00  0.00    -0.342 OA
ATOM      8  C   UNL     1      -9.597  17.493  67.876  0.00  0.00    +0.101 C 
ATOM      9  C   UNL     1     -10.487  17.879  66.659  0.00  0.00    +0.180 C 
ATOM     10  C   UNL     1     -10.245  19.336  66.138  0.00  0.00    +0.101 C 
ATOM     11  C   UNL     1      -9.691  20.340  67.386  0.00  0.00    +0.093 C 
ATOM     12  C   UNL     1      -7.273  20.318  66.861  0.00  0.00    +0.170 C 
ENDBRANCH   1   9
BRANCH   1  13
ATOM     13  C   UNL     1     -10.553  16.195  65.017  0.00  0.00    +0.323 C 
ATOM     14  O   UNL     1     -11.474  16.668  64.268  0.00  0.00    -0.250 OA
BRANCH  13  15
ATOM     15  C   UNL     1     -10.713  14.622  64.869  0.00  0.00    +0.154 C 
BRANCH  15  16
ATOM     16  C   UNL     1     -10.446  14.404  66.455  0.00  0.00    -0.009 A 
ATOM     17  C   UNL     1     -11.733  14.369  66.980  0.00  0.00    -0.004 A 
ATOM     18  C   UNL     1     -11.938  13.636  68.119  0.00  0.00    -0.000 A 
ATOM     19  C   UNL     1     -11.207  12.478  68.352  0.00  0.00    -0.000 A 
ATOM     20  C   UNL     1      -9.894  12.516  67.900  0.00  0.00    -0.000 A 
ATOM     21  C   UNL     1      -9.581  13.473  66.927  0.00  0.00    -0.004 A 
ENDBRANCH  15  16
BRANCH  15  22
ATOM     22  C   UNL     1     -12.349  14.519  65.072  0.00  0.00    +0.198 C 
ATOM     23  O   UNL     1     -12.610  13.743  63.928  0.00  0.00    -0.219 OA
ENDBRANCH  15  22
ENDBRANCH  13  15
ENDBRANCH   1  13
TORSDOF 5
ENDMDL
MODEL 2
REMARK VINA RESULT:      -6.6      3.474      4.825
REMARK  Name = 
REMARK  5 active torsions:
REMARK  status: ('A' for Active; 'I' for Inactive)
REMARK    1  A    between atoms: C_6  and  O_7
REMARK    2  A    between atoms: O_7  and  C_8
REMARK    3  A    between atoms: C_8  and  C_10
REMARK    4  A    between atoms: C_10  and  C_11
REMARK    5  A    between atoms: C_10  and  C_13
REMARK                            x       y       z     vdW  Elec       q    Type
REMARK                         _______ _______ _______ _____ _____    ______ ____
ROOT
ATOM      1  O   UNL     1     -11.653  16.348  69.712  0.00  0.00    -0.452 OA
ENDROOT
BRANCH   1   9
ATOM      2  C   UNL     1      -8.798  15.912  66.069  0.00  0.00    +0.170 C 
ATOM      3  N   UNL     1      -9.665  16.868  66.601  0.00  0.00    +0.302 N 
ATOM      4  C   UNL     1     -10.783  15.919  67.284  0.00  0.00    +0.093 C 
ATOM      5  C   UNL     1     -10.676  17.261  68.162  0.00  0.00    +0.197 C 
ATOM      6  C   UNL     1      -9.055  16.331  68.160  0.00  0.00    +0.197 C 
ATOM      7  O   UNL     1      -9.799  17.078  66.795  0.00  0.00    -0.342 OA
ATOM      8  C   UNL     1      -9.976  15.294  68.605  0.00  0.00    +0.101 C 
ATOM      9  C   UNL     1     -10.218  16.463  69.604  0.00  0.00    +0.180 C 
ATOM     10  C   UNL     1      -9.971  17.881  68.987  0.00  0.00    +0.101 C 
ATOM     11  C   UNL     1      -8.843  17.803  67.724  0.00  0.00    +0.093 C 
ATOM     12  C   UNL     1     -10.404  17.821  65.804  0.00  0.00    +0.170 C 
ENDBRANCH   1   9
BRANCH   1  13
ATOM     13  C   UNL     1     -12.180  15.732  70.675  0.00  0.00    +0.323 C 
ATOM     14  O   UNL     1     -11.530  15.710  71.774  0.00  0.00    -0.250 OA
BRANCH  13  15
ATOM     15  C   UNL     1     -13.454  14.829  70.968  0.00  0.00    +0.154 C 
BRANCH  15  16
ATOM     16  C   UNL     1     -12.528  13.509  71.152  0.00  0.00    -0.009 A 
ATOM     17  C   UNL     1     -13.301  12.705  71.980  0.00  0.00    -0.004 A 
ATOM     18  C   UNL     1     -13.152  11.348  71.875  0.00  0.00    -0.000 A 
ATOM     19  C   UNL     1     -12.856  10.766  70.648  0.00  0.00    -0.000 A 
ATOM     20  C   UNL     1     -12.024  11.519  69.830  0.00  0.00    -0.000 A 
ATOM     21  C   UNL     1     -11.928  12.890  70.106  0.00  0.00    -0.004 A 
ENDBRANCH  15  16
BRANCH  15  22
ATOM     22  C   UNL     1     -13.551  15.058  72.601  0.00  0.00    +0.198 C 
ATOM     23  O   UNL     1     -14.484  16.111  72.567  0.00  0.00    -0.219 OA
ENDBRANCH  15  22
ENDBRANCH  13  15
ENDBRANCH   1  13
TORSDOF 5
ENDMDL
MODEL 3
REMARK VINA RESULT:      -6.5      2.931      3.782
REMARK  Name = 
REMARK  5 active torsions:
REMARK  status: ('A' for Active; 'I' for Inactive)
REMARK    1  A    between atoms: C_6  and  O_7
REMARK    2  A    between atoms: O_7  and  C_8
REMARK    3  A    between atoms: C_8  and  C_10
REMARK    4  A    between atoms: C_10  and  C_11
REMARK    5  A    between atoms: C_10  and  C_13
REMARK                            x       y       z     vdW  Elec       q    Type
REMARK                         _______ _______ _______ _____ _____    ______ ____
ROOT
ATOM      1  O   UNL     1     -10.067  17.232  68.998  0.00  0.00    -0.452 OA
ENDROOT
BRANCH   1   9
ATOM      2  C   UNL     1      -7.392  20.716  67.476  0.00  0.00    +0.170 C 
ATOM      3  N   UNL     1      -7.413  19.322  67.420  0.00  0.00    +0.302 N 
ATOM      4  C   UNL     1      -8.122  18.971  68.831  0.00  0.00    +0.093 C 
ATOM      5  C   UNL     1      -8.537  17.831  67.777  0.00  0.00    +0.197 C 
ATOM      6  C   UNL     1      -9.150  19.508  67.226  0.00  0.00    +0.197 C 
ATOM      7  O   UNL     1      -7.500  19.024  67.361  0.00  0.00    -0.342 OA
ATOM      8  C   UNL     1      -9.705  19.431  68.570  0.00  0.00    +0.101 C 
ATOM      9  C   UNL     1     -10.217  18.134  67.880  0.00  0.00    +0.180 C 
ATOM     10  C   UNL     1      -9.249  17.580  66.781  0.00  0.00    +0.101 C 
ATOM     11  C   UNL     1      -8.326  18.830  66.103  0.00  0.00    +0.093 C 
ATOM     12  C   UNL     1      -6.227  18.498  67.370  0.00  0.00    +0.170 C 
ENDBRANCH   1   9
BRANCH   1  13
ATOM     13  C   UNL     1     -10.851  16.259  69.152  0.00  0.00    +0.323 C 
ATOM     14  O   UNL     1     -12.017  16.368  68.642  0.00  0.00    -0.250 OA
BRANCH  13  15
ATOM     15  C   UNL     1     -10.896  14.863  69.908  0.00  0.00    +0.154 C 
BRANCH  15  16
ATOM     16  C   UNL     1     -12.081  15.384  70.887  0.00  0.00    -0.009 A 
ATOM     17  C   UNL     1     -12.735  14.207  71.229  0.00  0.00    -0.004 A 
ATOM     18  C   UNL     1     -13.368  14.156  72.443  0.00  0.00    -0.000 A 
ATOM     19  C   UNL     1     -12.853  14.847  73.533  0.00  0.00    -0.000 A 
ATOM     20  C   UNL     1     -12.257  16.063  73.226  0.00  0.00    -0.000 A 
ATOM     21  C   UNL     1     -11.859  16.261  71.897  0.00  0.00    -0.004 A 
ENDBRANCH  15  16
BRANCH  15  22
ATOM     22  C   UNL     1     -11.972  14.083  68.927  0.00  0.00    +0.198 C 
ATOM     23  O   UNL     1     -11.056  13.174  68.366  0.00  0.00    -0.219 OA
ENDBRANCH  15  22
ENDBRANCH  13  15
ENDBRANCH   1  13
TORSDOF 5
ENDMDL
MODEL 4
REMARK VINA RESULT:      -6.5      2.666      3.680
REMARK  Name = 
REMARK  5 active torsions:
REMARK  status: ('A' for Active; 'I' for Inactive)
REMARK    1  A    between atoms: C_6  and  O_7
REMARK    2  A    between atoms: O_7  and  C_8
REMARK    3  A    between atoms: C_8  and  C_10
REMARK    4  A    between atoms: C_10  and  C_11
REMARK    5  A    between atoms: C_10  and  C_13
REMARK                            x       y       z     vdW  Elec       q    Type
REMARK                         _______ _______ _______ _____ _____    ______ ____
ROOT
ATOM      1  O   UNL     1     -10.974  16.127  68.044  0.00  0.00    -0.452 OA
ENDROOT
BRANCH   1   9
ATOM      2  C   UNL     1      -7.807  18.880  66.042  0.00  0.00    +0.170 C 
ATOM      3  N   UNL     1      -9.080  18.998  66.604  0.00  0.00    +0.302 N 
ATOM      4  C   UNL     1      -9.703  17.547  66.253  0.00  0.00    +0.093 C 
ATOM      5  C   UNL     1     -10.347  18.035  67.644  0.00  0.00    +0.197 C 
ATOM      6  C   UNL     1      -8.494  17.844  67.794  0.00  0.00    +0.197 C 
ATOM      7  O   UNL     1      -9.320  18.994  66.810  0.00  0.00    -0.342 OA
ATOM      8  C   UNL     1      -8.874  16.532  67.287  0.00  0.00    +0.101 C 
ATOM      9  C   UNL     1      -9.757  16.713  68.556  0.00  0.00    +0.180 C 
ATOM     10  C   UNL     1     -10.123  18.204  68.861  0.00  0.00    +0.101 C 
ATOM     11  C   UNL     1      -8.939  19.255  68.255  0.00  0.00    +0.093 C 
ATOM     12  C   UNL     1     -10.069  19.957  66.169  0.00  0.00    +0.170 C 
ENDBRANCH   1   9
BRANCH   1  13
ATOM     13  C   UNL     1     -11.287  14.941  68.325  0.00  0.00    +0.323 C 
ATOM     14  O   UNL     1     -12.094  14.350  67.531  0.00  0.00    -0.250 OA
BRANCH  13  15
ATOM     15  C   UNL     1     -11.052  13.882  69.486  0.00  0.00    +0.154 C 
BRANCH  15  16
ATOM     16  C   UNL     1     -12.420  14.335  70.232  0.00  0.00    -0.009 A 
ATOM     17  C   UNL     1     -12.722  13.227  71.015  0.00  0.00    -0.004 A 
ATOM     18  C   UNL     1     -13.415  13.435  72.178  0.00  0.00    -0.000 A 
ATOM     19  C   UNL     1     -13.228  14.603  72.909  0.00  0.00    -0.000 A 
ATOM     20  C   UNL     1     -12.996  15.739  72.145  0.00  0.00    -0.000 A 
ATOM     21  C   UNL     1     -12.558  15.545  70.828  0.00  0.00    -0.004 A 
ENDBRANCH  15  16
BRANCH  15  22
ATOM     22  C   UNL     1     -11.795  12.581  68.790  0.00  0.00    +0.198 C 
ATOM     23  O   UNL     1     -10.671  11.734  68.778  0.00  0.00    -0.219 OA
ENDBRANCH  15  22
ENDBRANCH  13  15
ENDBRANCH   1  13
TORSDOF 5
ENDMDL
MODEL 5
REMARK VINA RESULT:      -6.4      3.326      6.396
REMARK  Name = 
REMARK  5 active torsions:
REMARK  status: ('A' for Active; 'I' for Inactive)
REMARK    1  A    between atoms: C_6  and  O_7
REMARK    2  A    between atoms: O_7  and  C_8
REMARK    3  A    between atoms: C_8  and  C_10
REMARK    4  A    between atoms: C_10  and  C_11
REMARK    5  A    between atoms: C_10  and  C_13
REMARK                            x       y       z     vdW  Elec       q    Type
REMARK                         _______ _______ _______ _____ _____    ______ ____
ROOT
ATOM      1  O   UNL     1     -10.394  14.146  66.999  0.00  0.00    -0.452 OA
ENDROOT
BRANCH   1   9
ATOM      2  C   UNL     1     -12.352  12.003  63.368  0.00  0.00    +0.170 C 
ATOM      3  N   UNL     1     -11.105  12.062  63.991  0.00  0.00    +0.302 N 
ATOM      4  C   UNL     1     -11.114  13.579  64.551  0.00  0.00    +0.093 C 
ATOM      5  C   UNL     1     -10.254  12.684  65.572  0.00  0.00    +0.197 C 
ATOM      6  C   UNL     1     -12.024  12.091  65.489  0.00  0.00    +0.197 C 
ATOM      7  O   UNL     1     -10.873  12.038  64.205  0.00  0.00    -0.342 OA
ATOM      8  C   UNL     1     -12.212  13.500  65.805  0.00  0.00    +0.101 C 
ATOM      9  C   UNL     1     -11.257  12.990  66.924  0.00  0.00    +0.180 C 
ATOM     10  C   UNL     1     -10.324  11.817  66.470  0.00  0.00    +0.101 C 
ATOM     11  C   UNL     1     -11.041  10.923  65.220  0.00  0.00    +0.093 C 
ATOM     12  C   UNL     1      -9.847  11.916  63.294  0.00  0.00    +0.170 C 
ENDBRANCH   1   9
BRANCH   1  13
ATOM     13  C   UNL     1     -10.474  14.948  67.966  0.00  0.00    +0.323 C 
ATOM     14  O   UNL     1      -9.445  15.057  68.716  0.00  0.00    -0.250 OA
BRANCH  13  15
ATOM     15  C   UNL     1     -11.553  15.881  68.663  0.00  0.00    +0.154 C 
BRANCH  15  16
ATOM     16  C   UNL     1     -11.417  15.066  70.060  0.00  0.00    -0.009 A 
ATOM     17  C   UNL     1     -11.557  16.068  71.013  0.00  0.00    -0.004 A 
ATOM     18  C   UNL     1     -12.081  15.722  72.231  0.00  0.00    -0.000 A 
ATOM     19  C   UNL     1     -13.040  14.721  72.326  0.00  0.00    -0.000 A 
ATOM     20  C   UNL     1     -12.878  13.672  71.430  0.00  0.00    -0.000 A 
ATOM     21  C   UNL     1     -12.088  13.913  70.299  0.00  0.00    -0.004 A 
ENDBRANCH  15  16
BRANCH  15  22
ATOM     22  C   UNL     1     -10.544  17.076  69.195  0.00  0.00    +0.198 C 
ATOM     23  O   UNL     1     -10.808  17.991  68.159  0.00  0.00    -0.219 OA
ENDBRANCH  15  22
ENDBRANCH  13  15
ENDBRANCH   1  13
TORSDOF 5
ENDMDL
MODEL 6
REMARK VINA RESULT:      -6.3      1.667      2.709
REMARK  Name = 
REMARK  5 active torsions:
REMARK  status: ('A' for Active; 'I' for Inactive)
REMARK    1  A    between atoms: C_6  and  O_7
REMARK    2  A    between atoms: O_7  and  C_8
REMARK    3  A    between atoms: C_8  and  C_10
REMARK    4  A    between atoms: C_10  and  C_11
REMARK    5  A    between atoms: C_10  and  C_13
REMARK                            x       y       z     vdW  Elec       q    Type
REMARK                         _______ _______ _______ _____ _____    ______ ____
ROOT
ATOM      1  O   UNL     1     -10.498  16.671  67.124  0.00  0.00    -0.452 OA
ENDROOT
BRANCH   1   9
ATOM      2  C   UNL     1      -7.219  19.754  68.290  0.00  0.00    +0.170 C 
ATOM      3  N   UNL     1      -8.032  19.467  67.192  0.00  0.00    +0.302 N 
ATOM      4  C   UNL     1      -8.180  17.862  67.334  0.00  0.00    +0.093 C 
ATOM      5  C   UNL     1      -9.538  18.425  66.682  0.00  0.00    +0.197 C 
ATOM      6  C   UNL     1      -9.272  19.132  68.392  0.00  0.00    +0.197 C 
ATOM      7  O   UNL     1      -8.285  19.422  67.008  0.00  0.00    -0.342 OA
ATOM      8  C   UNL     1      -9.183  17.702  68.658  0.00  0.00    +0.101 C 
ATOM      9  C   UNL     1     -10.553  17.862  67.939  0.00  0.00    +0.180 C 
ATOM     10  C   UNL     1     -10.594  19.049  66.918  0.00  0.00    +0.101 C 
ATOM     11  C   UNL     1      -9.497  20.265  67.359  0.00  0.00    +0.093 C 
ATOM     12  C   UNL     1      -7.646  19.698  65.819  0.00  0.00    +0.170 C 
ENDBRANCH   1   9
BRANCH   1  13
ATOM     13  C   UNL     1     -10.936  15.573  67.557  0.00  0.00    +0.323 C 
ATOM     14  O   UNL     1     -11.858  15.624  68.440  0.00  0.00    -0.250 OA
BRANCH  13  15
ATOM     15  C   UNL     1     -10.634  14.021  67.412  0.00  0.00    +0.154 C 
BRANCH  15  16
ATOM     16  C   UNL     1     -11.184  14.014  65.885  0.00  0.00    -0.009 A 
ATOM     17  C   UNL     1     -10.156  13.385  65.192  0.00  0.00    -0.004 A 
ATOM     18  C   UNL     1     -10.482  12.684  64.062  0.00  0.00    -0.000 A 
ATOM     19  C   UNL     1     -11.703  12.027  63.969  0.00  0.00    -0.000 A 
ATOM     20  C   UNL     1     -12.762  12.673  64.593  0.00  0.00    -0.000 A 
ATOM     21  C   UNL     1     -12.444  13.629  65.567  0.00  0.00    -0.004 A 
ENDBRANCH  15  16
BRANCH  15  22
ATOM     22  C   UNL     1      -9.064  14.119  66.906  0.00  0.00    +0.198 C 
ATOM     23  O   UNL     1      -8.485  14.238  68.184  0.00  0.00    -0.219 OA
ENDBRANCH  15  22
ENDBRANCH  13  15
ENDBRANCH   1  13
TORSDOF 5
ENDMDL
MODEL 7
REMARK VINA RESULT:      -6.3      2.427      3.596
REMARK  Name = 
REMARK  5 active torsions:
REMARK  status: ('A' for Active; 'I' for Inactive)
REMARK    1  A    between atoms: C_6  and  O_7
REMARK    2  A    between atoms: O_7  and  C_8
REMARK    3  A    between atoms: C_8  and  C_10
REMARK    4  A    between atoms: C_10  and  C_11
REMARK    5  A    between atoms: C_10  and  C_13
REMARK                            x       y       z     vdW  Elec       q    Type
REMARK                         _______ _______ _______ _____ _____    ______ ____
ROOT
ATOM      1  O   UNL     1     -11.203  15.032  67.723  0.00  0.00    -0.452 OA
ENDROOT
BRANCH   1   9
ATOM      2  C   UNL     1      -7.945  18.033  66.312  0.00  0.00    +0.170 C 
ATOM      3  N   UNL     1      -9.278  18.065  66.725  0.00  0.00    +0.302 N 
ATOM      4  C   UNL     1      -9.793  16.624  66.202  0.00  0.00    +0.093 C 
ATOM      5  C   UNL     1     -10.615  16.984  67.536  0.00  0.00    +0.197 C 
ATOM      6  C   UNL     1      -8.786  16.846  67.893  0.00  0.00    +0.197 C 
ATOM      7  O   UNL     1      -9.540  18.038  66.900  0.00  0.00    -0.342 OA
ATOM      8  C   UNL     1      -9.048  15.563  67.254  0.00  0.00    +0.101 C 
ATOM      9  C   UNL     1     -10.080  15.619  68.417  0.00  0.00    +0.180 C 
ATOM     10  C   UNL     1     -10.543  17.070  68.781  0.00  0.00    +0.101 C 
ATOM     11  C   UNL     1      -9.342  18.203  68.395  0.00  0.00    +0.093 C 
ATOM     12  C   UNL     1     -10.250  19.019  66.244  0.00  0.00    +0.170 C 
ENDBRANCH   1   9
BRANCH   1  13
ATOM     13  C   UNL     1     -11.671  13.919  68.080  0.00  0.00    +0.323 C 
ATOM     14  O   UNL     1     -12.255  13.872  69.215  0.00  0.00    -0.250 OA
BRANCH  13  15
ATOM     15  C   UNL     1     -11.699  12.413  67.575  0.00  0.00    +0.154 C 
BRANCH  15  16
ATOM     16  C   UNL     1     -11.447  12.879  66.041  0.00  0.00    -0.009 A 
ATOM     17  C   UNL     1     -10.326  12.143  65.678  0.00  0.00    -0.004 A 
ATOM     18  C   UNL     1     -10.177  11.814  64.357  0.00  0.00    -0.000 A 
ATOM     19  C   UNL     1     -11.291  11.563  63.565  0.00  0.00    -0.000 A 
ATOM     20  C   UNL     1     -12.404  12.339  63.861  0.00  0.00    -0.000 A 
ATOM     21  C   UNL     1     -12.445  12.941  65.126  0.00  0.00    -0.004 A 
ENDBRANCH  15  16
BRANCH  15  22
ATOM     22  C   UNL     1     -10.102  12.049  67.787  0.00  0.00    +0.198 C 
ATOM     23  O   UNL     1     -10.270  11.211  68.905  0.00  0.00    -0.219 OA
ENDBRANCH  15  22
ENDBRANCH  13  15
ENDBRANCH   1  13
TORSDOF 5
ENDMDL
MODEL 8
REMARK VINA RESULT:      -6.1      2.433      6.318
REMARK  Name = 
REMARK  5 active torsions:
REMARK  status: ('A' for Active; 'I' for Inactive)
REMARK    1  A    between atoms: C_6  and  O_7
REMARK    2  A    between atoms: O_7  and  C_8
REMARK    3  A    between atoms: C_8  and  C_10
REMARK    4  A    between atoms: C_10  and  C_11
REMARK    5  A    between atoms: C_10  and  C_13
REMARK                            x       y       z     vdW  Elec       q    Type
REMARK                         _______ _______ _______ _____ _____    ______ ____
ROOT
ATOM      1  O   UNL     1     -10.771  15.612  66.412  0.00  0.00    -0.452 OA
ENDROOT
BRANCH   1   9
ATOM      2  C   UNL     1     -10.204  11.230  64.968  0.00  0.00    +0.170 C 
ATOM      3  N   UNL     1     -10.969  11.924  65.907  0.00  0.00    +0.302 N 
ATOM      4  C   UNL     1      -9.962  13.130  66.291  0.00  0.00    +0.093 C 
ATOM      5  C   UNL     1     -11.465  13.686  66.420  0.00  0.00    +0.197 C 
ATOM      6  C   UNL     1     -11.092  13.162  64.665  0.00  0.00    +0.197 C 
ATOM      7  O   UNL     1     -11.176  12.123  66.039  0.00  0.00    -0.342 OA
ATOM      8  C   UNL     1      -9.996  14.086  64.923  0.00  0.00    +0.101 C 
ATOM      9  C   UNL     1     -11.271  14.918  65.248  0.00  0.00    +0.180 C 
ATOM     10  C   UNL     1     -12.469  14.057  65.774  0.00  0.00    +0.101 C 
ATOM     11  C   UNL     1     -12.379  12.471  65.182  0.00  0.00    +0.093 C 
ATOM     12  C   UNL     1     -11.400  11.366  67.168  0.00  0.00    +0.170 C 
ENDBRANCH   1   9
BRANCH   1  13
ATOM     13  C   UNL     1     -10.424  16.821  66.342  0.00  0.00    +0.323 C 
ATOM     14  O   UNL     1     -10.636  17.422  65.235  0.00  0.00    -0.250 OA
BRANCH  13  15
ATOM     15  C   UNL     1      -9.671  17.905  67.225  0.00  0.00    +0.154 C 
BRANCH  15  16
ATOM     16  C   UNL     1      -8.356  17.825  66.275  0.00  0.00    -0.009 A 
ATOM     17  C   UNL     1      -7.883  19.132  66.298  0.00  0.00    -0.004 A 
ATOM     18  C   UNL     1      -6.538  19.327  66.131  0.00  0.00    -0.000 A 
ATOM     19  C   UNL     1      -5.627  18.394  66.609  0.00  0.00    -0.000 A 
ATOM     20  C   UNL     1      -6.048  17.073  66.530  0.00  0.00    -0.000 A 
ATOM     21  C   UNL     1      -7.425  16.848  66.402  0.00  0.00    -0.004 A 
ENDBRANCH  15  16
BRANCH  15  22
ATOM     22  C   UNL     1     -10.210  19.267  66.461  0.00  0.00    +0.198 C 
ATOM     23  O   UNL     1     -11.136  19.654  67.448  0.00  0.00    -0.219 OA
ENDBRANCH  15  22
ENDBRANCH  13  15
ENDBRANCH   1  13
TORSDOF 5
ENDMDL
MODEL 9
REMARK VINA RESULT:      -6.1      2.264      3.209
REMARK  Name = 
REMARK  5 active torsions:
REMARK  status: ('A' for Active; 'I' for Inactive)
REMARK    1  A    between atoms: C_6  and  O_7
REMARK    2  A    between atoms: O_7  and  C_8
REMARK    3  A    between atoms: C_8  and  C_10
REMARK    4  A    between atoms: C_10  and  C_11
REMARK    5  A    between atoms: C_10  and  C_13
REMARK                            x       y       z     vdW  Elec       q    Type
REMARK                         _______ _______ _______ _____ _____    ______ ____
ROOT
ATOM      1  O   UNL     1      -9.919  14.987  67.633  0.00  0.00    -0.452 OA
ENDROOT
BRANCH   1   9
ATOM      2  C   UNL     1      -9.155  19.511  68.387  0.00  0.00    +0.170 C 
ATOM      3  N   UNL     1      -8.859  18.555  67.414  0.00  0.00    +0.302 N 
ATOM      4  C   UNL     1      -8.747  17.220  68.321  0.00  0.00    +0.093 C 
ATOM      5  C   UNL     1      -9.301  16.786  66.876  0.00  0.00    +0.197 C 
ATOM      6  C   UNL     1     -10.484  17.960  67.722  0.00  0.00    +0.197 C 
ATOM      7  O   UNL     1      -8.889  18.336  67.187  0.00  0.00    -0.342 OA
ATOM      8  C   UNL     1     -10.336  16.925  68.737  0.00  0.00    +0.101 C 
ATOM      9  C   UNL     1     -10.772  16.141  67.465  0.00  0.00    +0.180 C 
ATOM     10  C   UNL     1     -10.300  16.801  66.126  0.00  0.00    +0.101 C 
ATOM     11  C   UNL     1     -10.117  18.476  66.308  0.00  0.00    +0.093 C 
ATOM     12  C   UNL     1      -7.663  18.572  66.604  0.00  0.00    +0.170 C 
ENDBRANCH   1   9
BRANCH   1  13
ATOM     13  C   UNL     1     -10.410  13.834  67.753  0.00  0.00    +0.323 C 
ATOM     14  O   UNL     1      -9.721  12.975  68.400  0.00  0.00    -0.250 OA
BRANCH  13  15
ATOM     15  C   UNL     1     -11.671  13.010  67.251  0.00  0.00    +0.154 C 
BRANCH  15  16
ATOM     16  C   UNL     1     -11.117  13.013  65.725  0.00  0.00    -0.009 A 
ATOM     17  C   UNL     1     -10.847  11.669  65.495  0.00  0.00    -0.004 A 
ATOM     18  C   UNL     1     -10.939  11.210  64.208  0.00  0.00    -0.000 A 
ATOM     19  C   UNL     1     -11.874  11.750  63.333  0.00  0.00    -0.000 A 
ATOM     20  C   UNL     1     -12.108  13.109  63.496  0.00  0.00    -0.000 A 
ATOM     21  C   UNL     1     -11.744  13.678  64.724  0.00  0.00    -0.004 A 
ENDBRANCH  15  16
BRANCH  15  22
ATOM     22  C   UNL     1     -11.095  11.485  67.518  0.00  0.00    +0.198 C 
ATOM     23  O   UNL     1     -12.175  11.033  68.297  0.00  0.00    -0.219 OA
ENDBRANCH  15  22
ENDBRANCH  13  15
ENDBRANCH   1  13
TORSDOF 5
ENDMDL
