MODEL 1
REMARK VINA RESULT:      -6.4      0.000      0.000
REMARK  Name = 
REMARK  12 active torsions:
REMARK  status: ('A' for Active; 'I' for Inactive)
REMARK    1  A    between atoms: C_2  and  C_5
REMARK    2  A    between atoms: C_5  and  C_6
REMARK    3  A    between atoms: C_6  and  C_9
REMARK    4  A    between atoms: C_12  and  O_13
REMARK    5  A    between atoms: O_13  and  C_14
REMARK    6  A    between atoms: C_14  and  C_15
REMARK    7  A    between atoms: C_15  and  O_16
REMARK    8  A    between atoms: O_16  and  C_17
REMARK    9  A    between atoms: C_17  and  C_18
REMARK   10  A    between atoms: C_18  and  N_19
REMARK   11  A    between atoms: N_19  and  C_22
REMARK   12  A    between atoms: C_22  and  C_23
REMARK                            x       y       z     vdW  Elec       q    Type
REMARK                         _______ _______ _______ _____ _____    ______ ____
ROOT
ATOM      1  O   UNL     1     -11.902  11.215  67.588  0.00  0.00    -0.473 OA
ENDROOT
BRANCH   1   5
ATOM      2  C   UNL     1     -11.171   8.777  70.804  0.00  0.00    -0.023 A 
ATOM      3  C   UNL     1     -10.435   8.544  69.647  0.00  0.00    -0.001 A 
ATOM      4  C   UNL     1     -10.576   9.423  68.579  0.00  0.00    +0.037 A 
ATOM      5  C   UNL     1     -11.308  10.598  68.694  0.00  0.00    +0.139 A 
ATOM      6  C   UNL     1     -11.633  10.967  69.993  0.00  0.00    +0.037 A 
ATOM      7  C   UNL     1     -11.846   9.983  70.952  0.00  0.00    -0.001 A 
BRANCH   2   8
ATOM      8  C   UNL     1     -11.751   7.630  71.572  0.00  0.00    +0.019 C 
ATOM      9  C   UNL     1     -13.252   7.840  71.640  0.00  0.00    +0.004 C 
ATOM     10  C   UNL     1     -11.521   6.312  70.889  0.00  0.00    +0.004 C 
BRANCH   8  11
ATOM     11  C   UNL     1     -11.221   7.678  72.975  0.00  0.00    +0.004 C 
BRANCH  11  13
ATOM     12  C   UNL     1      -9.573   5.986  72.109  0.00  0.00    +0.000 C 
ATOM     13  C   UNL     1      -9.860   7.061  73.130  0.00  0.00    +0.000 C 
ATOM     14  C   UNL     1      -9.829   6.422  74.515  0.00  0.00    +0.000 C 
ATOM     15  C   UNL     1      -8.744   8.091  73.115  0.00  0.00    +0.000 C 
ENDBRANCH  11  13
ENDBRANCH   8  11
ENDBRANCH   2   8
ENDBRANCH   1   5
BRANCH   1  16
ATOM     16  C   UNL     1     -11.823  12.634  67.528  0.00  0.00    +0.237 C 
BRANCH  16  17
ATOM     17  C   UNL     1     -11.843  12.992  66.048  0.00  0.00    +0.190 C 
BRANCH  17  18
ATOM     18  O   UNL     1     -11.483  14.348  65.982  0.00  0.00    -0.344 OA
BRANCH  18  19
ATOM     19  C   UNL     1     -10.569  14.552  67.026  0.00  0.00    +0.203 C 
BRANCH  19  20
ATOM     20  C   UNL     1     -10.555  16.043  67.342  0.00  0.00    +0.142 C 
BRANCH  20  21
ATOM     21  N   UNL     1     -10.639  16.187  68.793  0.00  0.00    +0.311 N 
ATOM     22  C   UNL     1     -10.166  17.490  69.169  0.00  0.00    +0.171 C 
ATOM     23  C   UNL     1      -9.742  15.178  69.344  0.00  0.00    +0.171 C 
BRANCH  21  24
ATOM     24  C   UNL     1     -12.000  15.922  69.161  0.00  0.00    +0.137 C 
BRANCH  24  25
ATOM     25  C   UNL     1     -12.190  15.509  70.555  0.00  0.00    +0.033 A 
ATOM     26  C   UNL     1     -11.824  16.217  71.663  0.00  0.00    +0.001 A 
ATOM     27  C   UNL     1     -12.507  15.990  72.852  0.00  0.00    -0.000 A 
ATOM     28  C   UNL     1     -12.983  14.705  73.084  0.00  0.00    -0.000 A 
ATOM     29  C   UNL     1     -13.097  13.807  72.030  0.00  0.00    -0.000 A 
ATOM     30  C   UNL     1     -12.860  14.309  70.766  0.00  0.00    +0.001 A 
ENDBRANCH  24  25
ENDBRANCH  21  24
ENDBRANCH  20  21
ENDBRANCH  19  20
ENDBRANCH  18  19
ENDBRANCH  17  18
ENDBRANCH  16  17
ENDBRANCH   1  16
TORSDOF 12
ENDMDL
MODEL 2
REMARK VINA RESULT:      -6.4      1.860      4.162
REMARK  Name = 
REMARK  12 active torsions:
REMARK  status: ('A' for Active; 'I' for Inactive)
REMARK    1  A    between atoms: C_2  and  C_5
REMARK    2  A    between atoms: C_5  and  C_6
REMARK    3  A    between atoms: C_6  and  C_9
REMARK    4  A    between atoms: C_12  and  O_13
REMARK    5  A    between atoms: O_13  and  C_14
REMARK    6  A    between atoms: C_14  and  C_15
REMARK    7  A    between atoms: C_15  and  O_16
REMARK    8  A    between atoms: O_16  and  C_17
REMARK    9  A    between atoms: C_17  and  C_18
REMARK   10  A    between atoms: C_18  and  N_19
REMARK   11  A    between atoms: N_19  and  C_22
REMARK   12  A    between atoms: C_22  and  C_23
REMARK                            x       y       z     vdW  Elec       q    Type
REMARK                         _______ _______ _______ _____ _____    ______ ____
ROOT
ATOM      1  O   UNL     1     -13.199  12.600  72.533  0.00  0.00    -0.473 OA
ENDROOT
BRANCH   1   5
ATOM      2  C   UNL     1     -11.714   9.332  70.550  0.00  0.00    -0.023 A 
ATOM      3  C   UNL     1     -12.845   9.141  71.337  0.00  0.00    -0.001 A 
ATOM      4  C   UNL     1     -13.439  10.250  71.929  0.00  0.00    +0.037 A 
ATOM      5  C   UNL     1     -13.027  11.543  71.635  0.00  0.00    +0.139 A 
ATOM      6  C   UNL     1     -12.205  11.661  70.521  0.00  0.00    +0.037 A 
ATOM      7  C   UNL     1     -11.341  10.623  70.194  0.00  0.00    -0.001 A 
BRANCH   2   8
ATOM      8  C   UNL     1     -10.595   8.338  70.585  0.00  0.00    +0.019 C 
ATOM      9  C   UNL     1     -10.139   8.116  69.155  0.00  0.00    +0.004 C 
ATOM     10  C   UNL     1      -9.407   8.842  71.354  0.00  0.00    +0.004 C 
BRANCH   8  11
ATOM     11  C   UNL     1     -11.130   7.033  71.098  0.00  0.00    +0.004 C 
BRANCH  11  13
ATOM     12  C   UNL     1      -8.930   6.057  71.828  0.00  0.00    +0.000 C 
ATOM     13  C   UNL     1     -10.331   6.454  72.230  0.00  0.00    +0.000 C 
ATOM     14  C   UNL     1     -11.069   5.200  72.685  0.00  0.00    +0.000 C 
ATOM     15  C   UNL     1     -10.273   7.373  73.439  0.00  0.00    +0.000 C 
ENDBRANCH  11  13
ENDBRANCH   8  11
ENDBRANCH   2   8
ENDBRANCH   1   5
BRANCH   1  16
ATOM     16  C   UNL     1     -13.874  13.753  72.044  0.00  0.00    +0.237 C 
BRANCH  16  17
ATOM     17  C   UNL     1     -13.167  14.948  72.669  0.00  0.00    +0.190 C 
BRANCH  17  18
ATOM     18  O   UNL     1     -13.218  15.966  71.702  0.00  0.00    -0.344 OA
BRANCH  18  19
ATOM     19  C   UNL     1     -12.683  15.409  70.532  0.00  0.00    +0.203 C 
BRANCH  19  20
ATOM     20  C   UNL     1     -11.267  15.948  70.368  0.00  0.00    +0.142 C 
BRANCH  20  21
ATOM     21  N   UNL     1     -10.860  15.706  68.986  0.00  0.00    +0.311 N 
ATOM     22  C   UNL     1      -9.616  14.990  68.977  0.00  0.00    +0.171 C 
ATOM     23  C   UNL     1     -10.654  17.026  68.398  0.00  0.00    +0.171 C 
BRANCH  21  24
ATOM     24  C   UNL     1     -11.944  15.020  68.345  0.00  0.00    +0.137 C 
BRANCH  24  25
ATOM     25  C   UNL     1     -11.574  14.290  67.128  0.00  0.00    +0.033 A 
ATOM     26  C   UNL     1     -11.123  14.840  65.963  0.00  0.00    +0.001 A 
ATOM     27  C   UNL     1     -10.333  14.064  65.124  0.00  0.00    -0.000 A 
ATOM     28  C   UNL     1     -10.580  12.697  65.092  0.00  0.00    -0.000 A 
ATOM     29  C   UNL     1     -11.312  12.101  66.112  0.00  0.00    -0.000 A 
ATOM     30  C   UNL     1     -11.630  12.902  67.189  0.00  0.00    +0.001 A 
ENDBRANCH  24  25
ENDBRANCH  21  24
ENDBRANCH  20  21
ENDBRANCH  19  20
ENDBRANCH  18  19
ENDBRANCH  17  18
ENDBRANCH  16  17
ENDBRANCH   1  16
TORSDOF 12
ENDMDL
MODEL 3
REMARK VINA RESULT:      -6.3      2.007      4.552
REMARK  Name = 
REMARK  12 active torsions:
REMARK  status: ('A' for Active; 'I' for Inactive)
REMARK    1  A    between atoms: C_2  and  C_5
REMARK    2  A    between atoms: C_5  and  C_6
REMARK    3  A    between atoms: C_6  and  C_9
REMARK    4  A    between atoms: C_12  and  O_13
REMARK    5  A    between atoms: O_13  and  C_14
REMARK    6  A    between atoms: C_14  and  C_15
REMARK    7  A    between atoms: C_15  and  O_16
REMARK    8  A    between atoms: O_16  and  C_17
REMARK    9  A    between atoms: C_17  and  C_18
REMARK   10  A    between atoms: C_18  and  N_19
REMARK   11  A    between atoms: N_19  and  C_22
REMARK   12  A    between atoms: C_22  and  C_23
REMARK                            x       y       z     vdW  Elec       q    Type
REMARK                         _______ _______ _______ _____ _____    ______ ____
ROOT
ATOM      1  O   UNL     1     -13.273  12.337  72.460  0.00  0.00    -0.473 OA
ENDROOT
BRANCH   1   5
ATOM      2  C   UNL     1     -11.548   9.060  70.698  0.00  0.00    -0.023 A 
ATOM      3  C   UNL     1     -12.707   8.850  71.438  0.00  0.00    -0.001 A 
ATOM      4  C   UNL     1     -13.379   9.954  71.951  0.00  0.00    +0.037 A 
ATOM      5  C   UNL     1     -13.011  11.252  71.619  0.00  0.00    +0.139 A 
ATOM      6  C   UNL     1     -12.141  11.360  70.541  0.00  0.00    +0.037 A 
ATOM      7  C   UNL     1     -11.216  10.350  70.302  0.00  0.00    -0.001 A 
BRANCH   2   8
ATOM      8  C   UNL     1     -10.390   8.122  70.829  0.00  0.00    +0.019 C 
ATOM      9  C   UNL     1      -9.526   8.622  71.972  0.00  0.00    +0.004 C 
ATOM     10  C   UNL     1     -10.822   6.726  71.181  0.00  0.00    +0.004 C 
BRANCH   8  11
ATOM     11  C   UNL     1      -9.570   8.195  69.575  0.00  0.00    +0.004 C 
BRANCH  11  13
ATOM     12  C   UNL     1     -11.180   6.385  68.897  0.00  0.00    +0.000 C 
ATOM     13  C   UNL     1     -10.092   7.336  68.459  0.00  0.00    +0.000 C 
ATOM     14  C   UNL     1      -8.911   6.510  67.959  0.00  0.00    +0.000 C 
ATOM     15  C   UNL     1     -10.573   8.148  67.269  0.00  0.00    +0.000 C 
ENDBRANCH  11  13
ENDBRANCH   8  11
ENDBRANCH   2   8
ENDBRANCH   1   5
BRANCH   1  16
ATOM     16  C   UNL     1     -13.663  13.553  71.832  0.00  0.00    +0.237 C 
BRANCH  16  17
ATOM     17  C   UNL     1     -12.951  14.663  72.593  0.00  0.00    +0.190 C 
BRANCH  17  18
ATOM     18  O   UNL     1     -13.149  15.829  71.834  0.00  0.00    -0.344 OA
BRANCH  18  19
ATOM     19  C   UNL     1     -12.841  15.480  70.511  0.00  0.00    +0.203 C 
BRANCH  19  20
ATOM     20  C   UNL     1     -11.471  16.064  70.186  0.00  0.00    +0.142 C 
BRANCH  20  21
ATOM     21  N   UNL     1     -10.976  15.390  68.989  0.00  0.00    +0.311 N 
ATOM     22  C   UNL     1      -9.648  14.902  69.233  0.00  0.00    +0.171 C 
ATOM     23  C   UNL     1     -10.923  16.414  67.952  0.00  0.00    +0.171 C 
BRANCH  21  24
ATOM     24  C   UNL     1     -11.931  14.371  68.658  0.00  0.00    +0.137 C 
BRANCH  24  25
ATOM     25  C   UNL     1     -11.632  13.625  67.432  0.00  0.00    +0.033 A 
ATOM     26  C   UNL     1     -10.731  12.607  67.306  0.00  0.00    +0.001 A 
ATOM     27  C   UNL     1     -10.922  11.673  66.294  0.00  0.00    -0.000 A 
ATOM     28  C   UNL     1     -11.504  12.116  65.113  0.00  0.00    -0.000 A 
ATOM     29  C   UNL     1     -12.194  13.322  65.089  0.00  0.00    -0.000 A 
ATOM     30  C   UNL     1     -12.381  13.947  66.306  0.00  0.00    +0.001 A 
ENDBRANCH  24  25
ENDBRANCH  21  24
ENDBRANCH  20  21
ENDBRANCH  19  20
ENDBRANCH  18  19
ENDBRANCH  17  18
ENDBRANCH  16  17
ENDBRANCH   1  16
TORSDOF 12
ENDMDL
MODEL 4
REMARK VINA RESULT:      -6.2      1.991      4.990
REMARK  Name = 
REMARK  12 active torsions:
REMARK  status: ('A' for Active; 'I' for Inactive)
REMARK    1  A    between atoms: C_2  and  C_5
REMARK    2  A    between atoms: C_5  and  C_6
REMARK    3  A    between atoms: C_6  and  C_9
REMARK    4  A    between atoms: C_12  and  O_13
REMARK    5  A    between atoms: O_13  and  C_14
REMARK    6  A    between atoms: C_14  and  C_15
REMARK    7  A    between atoms: C_15  and  O_16
REMARK    8  A    between atoms: O_16  and  C_17
REMARK    9  A    between atoms: C_17  and  C_18
REMARK   10  A    between atoms: C_18  and  N_19
REMARK   11  A    between atoms: N_19  and  C_22
REMARK   12  A    between atoms: C_22  and  C_23
REMARK                            x       y       z     vdW  Elec       q    Type
REMARK                         _______ _______ _______ _____ _____    ______ ____
ROOT
ATOM      1  O   UNL     1     -12.941  13.290  71.913  0.00  0.00    -0.473 OA
ENDROOT
BRANCH   1   5
ATOM      2  C   UNL     1     -11.595   9.769  70.297  0.00  0.00    -0.023 A 
ATOM      3  C   UNL     1     -12.574   9.686  71.281  0.00  0.00    -0.001 A 
ATOM      4  C   UNL     1     -13.133  10.863  71.766  0.00  0.00    +0.037 A 
ATOM      5  C   UNL     1     -12.851  12.096  71.192  0.00  0.00    +0.139 A 
ATOM      6  C   UNL     1     -12.223  12.040  69.954  0.00  0.00    +0.037 A 
ATOM      7  C   UNL     1     -11.361  10.987  69.669  0.00  0.00    -0.001 A 
BRANCH   2   8
ATOM      8  C   UNL     1     -10.427   8.833  70.314  0.00  0.00    +0.019 C 
ATOM      9  C   UNL     1      -9.847   8.854  71.716  0.00  0.00    +0.004 C 
ATOM     10  C   UNL     1     -10.829   7.415  70.024  0.00  0.00    +0.004 C 
BRANCH   8  11
ATOM     11  C   UNL     1      -9.378   9.360  69.380  0.00  0.00    +0.004 C 
BRANCH  11  13
ATOM     12  C   UNL     1      -8.561   7.152  68.494  0.00  0.00    +0.000 C 
ATOM     13  C   UNL     1      -9.158   8.501  68.168  0.00  0.00    +0.000 C 
ATOM     14  C   UNL     1      -8.176   9.253  67.276  0.00  0.00    +0.000 C 
ATOM     15  C   UNL     1     -10.421   8.314  67.344  0.00  0.00    +0.000 C 
ENDBRANCH  11  13
ENDBRANCH   8  11
ENDBRANCH   2   8
ENDBRANCH   1   5
BRANCH   1  16
ATOM     16  C   UNL     1     -13.344  14.446  71.188  0.00  0.00    +0.237 C 
BRANCH  16  17
ATOM     17  C   UNL     1     -12.121  15.351  71.132  0.00  0.00    +0.190 C 
BRANCH  17  18
ATOM     18  O   UNL     1     -12.143  15.939  69.856  0.00  0.00    -0.344 OA
BRANCH  18  19
ATOM     19  C   UNL     1     -11.008  15.453  69.191  0.00  0.00    +0.203 C 
BRANCH  19  20
ATOM     20  C   UNL     1     -10.939  16.139  67.832  0.00  0.00    +0.142 C 
BRANCH  20  21
ATOM     21  N   UNL     1     -10.568  15.129  66.845  0.00  0.00    +0.311 N 
ATOM     22  C   UNL     1      -9.173  14.818  66.986  0.00  0.00    +0.171 C 
ATOM     23  C   UNL     1     -10.788  15.748  65.543  0.00  0.00    +0.171 C 
BRANCH  21  24
ATOM     24  C   UNL     1     -11.447  14.012  67.040  0.00  0.00    +0.137 C 
BRANCH  24  25
ATOM     25  C   UNL     1     -11.493  13.066  65.921  0.00  0.00    +0.033 A 
ATOM     26  C   UNL     1     -12.352  13.111  64.861  0.00  0.00    +0.001 A 
ATOM     27  C   UNL     1     -11.963  12.519  63.665  0.00  0.00    -0.000 A 
ATOM     28  C   UNL     1     -11.152  11.393  63.740  0.00  0.00    -0.000 A 
ATOM     29  C   UNL     1     -10.470  11.107  64.916  0.00  0.00    -0.000 A 
ATOM     30  C   UNL     1     -10.531  12.062  65.910  0.00  0.00    +0.001 A 
ENDBRANCH  24  25
ENDBRANCH  21  24
ENDBRANCH  20  21
ENDBRANCH  19  20
ENDBRANCH  18  19
ENDBRANCH  17  18
ENDBRANCH  16  17
ENDBRANCH   1  16
TORSDOF 12
ENDMDL
MODEL 5
REMARK VINA RESULT:      -6.1      1.896      4.652
REMARK  Name = 
REMARK  12 active torsions:
REMARK  status: ('A' for Active; 'I' for Inactive)
REMARK    1  A    between atoms: C_2  and  C_5
REMARK    2  A    between atoms: C_5  and  C_6
REMARK    3  A    between atoms: C_6  and  C_9
REMARK    4  A    between atoms: C_12  and  O_13
REMARK    5  A    between atoms: O_13  and  C_14
REMARK    6  A    between atoms: C_14  and  C_15
REMARK    7  A    between atoms: C_15  and  O_16
REMARK    8  A    between atoms: O_16  and  C_17
REMARK    9  A    between atoms: C_17  and  C_18
REMARK   10  A    between atoms: C_18  and  N_19
REMARK   11  A    between atoms: N_19  and  C_22
REMARK   12  A    between atoms: C_22  and  C_23
REMARK                            x       y       z     vdW  Elec       q    Type
REMARK                         _______ _______ _______ _____ _____    ______ ____
ROOT
ATOM      1  O   UNL     1     -12.570  13.596  71.477  0.00  0.00    -0.473 OA
ENDROOT
BRANCH   1   5
ATOM      2  C   UNL     1     -11.627   9.689  70.658  0.00  0.00    -0.023 A 
ATOM      3  C   UNL     1     -12.661   9.921  71.559  0.00  0.00    -0.001 A 
ATOM      4  C   UNL     1     -13.081  11.229  71.771  0.00  0.00    +0.037 A 
ATOM      5  C   UNL     1     -12.603  12.282  71.001  0.00  0.00    +0.139 A 
ATOM      6  C   UNL     1     -11.921  11.909  69.849  0.00  0.00    +0.037 A 
ATOM      7  C   UNL     1     -11.196  10.723  69.835  0.00  0.00    -0.001 A 
BRANCH   2   8
ATOM      8  C   UNL     1     -10.600   8.639  70.942  0.00  0.00    +0.019 C 
ATOM      9  C   UNL     1      -9.245   9.213  70.572  0.00  0.00    +0.004 C 
ATOM     10  C   UNL     1     -10.542   8.276  72.399  0.00  0.00    +0.004 C 
BRANCH   8  11
ATOM     11  C   UNL     1     -10.856   7.464  70.044  0.00  0.00    +0.004 C 
BRANCH  11  13
ATOM     12  C   UNL     1      -8.648   6.429  70.663  0.00  0.00    +0.000 C 
ATOM     13  C   UNL     1     -10.129   6.216  70.456  0.00  0.00    +0.000 C 
ATOM     14  C   UNL     1     -10.311   5.213  69.322  0.00  0.00    +0.000 C 
ATOM     15  C   UNL     1     -10.728   5.569  71.693  0.00  0.00    +0.000 C 
ENDBRANCH  11  13
ENDBRANCH   8  11
ENDBRANCH   2   8
ENDBRANCH   1   5
BRANCH   1  16
ATOM     16  C   UNL     1     -12.593  14.631  70.502  0.00  0.00    +0.237 C 
BRANCH  16  17
ATOM     17  C   UNL     1     -11.744  15.760  71.070  0.00  0.00    +0.190 C 
BRANCH  17  18
ATOM     18  O   UNL     1     -10.949  16.209  70.002  0.00  0.00    -0.344 OA
BRANCH  18  19
ATOM     19  C   UNL     1     -11.557  15.717  68.839  0.00  0.00    +0.203 C 
BRANCH  19  20
ATOM     20  C   UNL     1     -10.819  16.310  67.645  0.00  0.00    +0.142 C 
BRANCH  20  21
ATOM     21  N   UNL     1     -10.449  15.207  66.762  0.00  0.00    +0.311 N 
ATOM     22  C   UNL     1      -9.096  14.813  67.037  0.00  0.00    +0.171 C 
ATOM     23  C   UNL     1     -10.521  15.743  65.407  0.00  0.00    +0.171 C 
BRANCH  21  24
ATOM     24  C   UNL     1     -11.420  14.171  66.959  0.00  0.00    +0.137 C 
BRANCH  24  25
ATOM     25  C   UNL     1     -11.498  13.188  65.873  0.00  0.00    +0.033 A 
ATOM     26  C   UNL     1     -12.363  13.220  64.817  0.00  0.00    +0.001 A 
ATOM     27  C   UNL     1     -11.997  12.579  63.640  0.00  0.00    -0.000 A 
ATOM     28  C   UNL     1     -11.215  11.435  63.748  0.00  0.00    -0.000 A 
ATOM     29  C   UNL     1     -10.531  11.172  64.928  0.00  0.00    -0.000 A 
ATOM     30  C   UNL     1     -10.561  12.161  65.889  0.00  0.00    +0.001 A 
ENDBRANCH  24  25
ENDBRANCH  21  24
ENDBRANCH  20  21
ENDBRANCH  19  20
ENDBRANCH  18  19
ENDBRANCH  17  18
ENDBRANCH  16  17
ENDBRANCH   1  16
TORSDOF 12
ENDMDL
MODEL 6
REMARK VINA RESULT:      -6.1      1.302      2.278
REMARK  Name = 
REMARK  12 active torsions:
REMARK  status: ('A' for Active; 'I' for Inactive)
REMARK    1  A    between atoms: C_2  and  C_5
REMARK    2  A    between atoms: C_5  and  C_6
REMARK    3  A    between atoms: C_6  and  C_9
REMARK    4  A    between atoms: C_12  and  O_13
REMARK    5  A    between atoms: O_13  and  C_14
REMARK    6  A    between atoms: C_14  and  C_15
REMARK    7  A    between atoms: C_15  and  O_16
REMARK    8  A    between atoms: O_16  and  C_17
REMARK    9  A    between atoms: C_17  and  C_18
REMARK   10  A    between atoms: C_18  and  N_19
REMARK   11  A    between atoms: N_19  and  C_22
REMARK   12  A    between atoms: C_22  and  C_23
REMARK                            x       y       z     vdW  Elec       q    Type
REMARK                         _______ _______ _______ _____ _____    ______ ____
ROOT
ATOM      1  O   UNL     1     -11.439  10.802  68.346  0.00  0.00    -0.473 OA
ENDROOT
BRANCH   1   5
ATOM      2  C   UNL     1     -10.619   8.535  71.664  0.00  0.00    -0.023 A 
ATOM      3  C   UNL     1      -9.537   9.076  70.978  0.00  0.00    -0.001 A 
ATOM      4  C   UNL     1      -9.785   9.942  69.918  0.00  0.00    +0.037 A 
ATOM      5  C   UNL     1     -11.067  10.394  69.630  0.00  0.00    +0.139 A 
ATOM      6  C   UNL     1     -12.011  10.161  70.622  0.00  0.00    +0.037 A 
ATOM      7  C   UNL     1     -11.894   9.035  71.430  0.00  0.00    -0.001 A 
BRANCH   2   8
ATOM      8  C   UNL     1     -10.574   7.118  72.144  0.00  0.00    +0.019 C 
ATOM      9  C   UNL     1     -10.385   7.152  73.648  0.00  0.00    +0.004 C 
ATOM     10  C   UNL     1     -11.858   6.384  71.877  0.00  0.00    +0.004 C 
BRANCH   8  11
ATOM     11  C   UNL     1      -9.369   6.449  71.549  0.00  0.00    +0.004 C 
BRANCH  11  13
ATOM     12  C   UNL     1     -10.067   4.060  71.186  0.00  0.00    +0.000 C 
ATOM     13  C   UNL     1      -9.701   5.380  70.549  0.00  0.00    +0.000 C 
ATOM     14  C   UNL     1      -8.448   5.170  69.706  0.00  0.00    +0.000 C 
ATOM     15  C   UNL     1     -10.796   5.800  69.582  0.00  0.00    +0.000 C 
ENDBRANCH  11  13
ENDBRANCH   8  11
ENDBRANCH   2   8
ENDBRANCH   1   5
BRANCH   1  16
ATOM     16  C   UNL     1     -10.397  10.923  67.386  0.00  0.00    +0.237 C 
BRANCH  16  17
ATOM     17  C   UNL     1     -11.060  11.425  66.110  0.00  0.00    +0.190 C 
BRANCH  17  18
ATOM     18  O   UNL     1     -12.112  12.254  66.532  0.00  0.00    -0.344 OA
BRANCH  18  19
ATOM     19  C   UNL     1     -11.627  13.567  66.432  0.00  0.00    +0.203 C 
BRANCH  19  20
ATOM     20  C   UNL     1     -12.164  14.350  67.625  0.00  0.00    +0.142 C 
BRANCH  20  21
ATOM     21  N   UNL     1     -11.020  14.931  68.322  0.00  0.00    +0.311 N 
ATOM     22  C   UNL     1     -11.271  16.323  68.566  0.00  0.00    +0.171 C 
ATOM     23  C   UNL     1      -9.892  14.804  67.406  0.00  0.00    +0.171 C 
BRANCH  21  24
ATOM     24  C   UNL     1     -10.812  14.149  69.507  0.00  0.00    +0.137 C 
BRANCH  24  25
ATOM     25  C   UNL     1     -11.741  14.440  70.604  0.00  0.00    +0.033 A 
ATOM     26  C   UNL     1     -12.906  13.781  70.870  0.00  0.00    +0.001 A 
ATOM     27  C   UNL     1     -13.390  13.787  72.173  0.00  0.00    -0.000 A 
ATOM     28  C   UNL     1     -13.143  14.915  72.944  0.00  0.00    -0.000 A 
ATOM     29  C   UNL     1     -12.155  15.814  72.562  0.00  0.00    -0.000 A 
ATOM     30  C   UNL     1     -11.367  15.442  71.492  0.00  0.00    +0.001 A 
ENDBRANCH  24  25
ENDBRANCH  21  24
ENDBRANCH  20  21
ENDBRANCH  19  20
ENDBRANCH  18  19
ENDBRANCH  17  18
ENDBRANCH  16  17
ENDBRANCH   1  16
TORSDOF 12
ENDMDL
MODEL 7
REMARK VINA RESULT:      -6.0      2.645      6.515
REMARK  Name = 
REMARK  12 active torsions:
REMARK  status: ('A' for Active; 'I' for Inactive)
REMARK    1  A    between atoms: C_2  and  C_5
REMARK    2  A    between atoms: C_5  and  C_6
REMARK    3  A    between atoms: C_6  and  C_9
REMARK    4  A    between atoms: C_12  and  O_13
REMARK    5  A    between atoms: O_13  and  C_14
REMARK    6  A    between atoms: C_14  and  C_15
REMARK    7  A    between atoms: C_15  and  O_16
REMARK    8  A    between atoms: O_16  and  C_17
REMARK    9  A    between atoms: C_17  and  C_18
REMARK   10  A    between atoms: C_18  and  N_19
REMARK   11  A    between atoms: N_19  and  C_22
REMARK   12  A    between atoms: C_22  and  C_23
REMARK                            x       y       z     vdW  Elec       q    Type
REMARK                         _______ _______ _______ _____ _____    ______ ____
ROOT
ATOM      1  O   UNL     1     -10.353  10.154  69.757  0.00  0.00    -0.473 OA
ENDROOT
BRANCH   1   5
ATOM      2  C   UNL     1      -9.874  11.178  65.815  0.00  0.00    -0.023 A 
ATOM      3  C   UNL     1      -8.970  11.712  66.727  0.00  0.00    -0.001 A 
ATOM      4  C   UNL     1      -9.035  11.295  68.052  0.00  0.00    +0.037 A 
ATOM      5  C   UNL     1      -9.868  10.257  68.450  0.00  0.00    +0.139 A 
ATOM      6  C   UNL     1     -10.397   9.495  67.416  0.00  0.00    +0.037 A 
ATOM      7  C   UNL     1     -10.658  10.093  66.188  0.00  0.00    -0.001 A 
BRANCH   2   8
ATOM      8  C   UNL     1     -10.458  12.040  64.740  0.00  0.00    +0.019 C 
ATOM      9  C   UNL     1      -9.775  11.669  63.437  0.00  0.00    +0.004 C 
ATOM     10  C   UNL     1     -11.929  11.798  64.551  0.00  0.00    +0.004 C 
BRANCH   8  11
ATOM     11  C   UNL     1     -10.121  13.471  65.038  0.00  0.00    +0.004 C 
BRANCH  11  13
ATOM     12  C   UNL     1     -12.201  14.460  64.028  0.00  0.00    +0.000 C 
ATOM     13  C   UNL     1     -11.323  14.346  65.251  0.00  0.00    +0.000 C 
ATOM     14  C   UNL     1     -10.794  15.735  65.589  0.00  0.00    +0.000 C 
ATOM     15  C   UNL     1     -12.161  13.911  66.442  0.00  0.00    +0.000 C 
ENDBRANCH  11  13
ENDBRANCH   8  11
ENDBRANCH   2   8
ENDBRANCH   1   5
BRANCH   1  16
ATOM     16  C   UNL     1     -11.675  10.627  69.988  0.00  0.00    +0.237 C 
BRANCH  16  17
ATOM     17  C   UNL     1     -12.102  10.037  71.325  0.00  0.00    +0.190 C 
BRANCH  17  18
ATOM     18  O   UNL     1     -13.073  10.916  71.834  0.00  0.00    -0.344 OA
BRANCH  18  19
ATOM     19  C   UNL     1     -12.870  12.135  71.170  0.00  0.00    +0.203 C 
BRANCH  19  20
ATOM     20  C   UNL     1     -13.180  13.255  72.156  0.00  0.00    +0.142 C 
BRANCH  20  21
ATOM     21  N   UNL     1     -12.857  14.521  71.503  0.00  0.00    +0.311 N 
ATOM     22  C   UNL     1     -11.783  15.159  72.211  0.00  0.00    +0.171 C 
ATOM     23  C   UNL     1     -14.056  15.343  71.617  0.00  0.00    +0.171 C 
BRANCH  21  24
ATOM     24  C   UNL     1     -12.566  14.220  70.131  0.00  0.00    +0.137 C 
BRANCH  24  25
ATOM     25  C   UNL     1     -11.472  15.006  69.550  0.00  0.00    +0.033 A 
ATOM     26  C   UNL     1     -11.536  16.313  69.160  0.00  0.00    +0.001 A 
ATOM     27  C   UNL     1     -10.363  17.057  69.138  0.00  0.00    -0.000 A 
ATOM     28  C   UNL     1      -9.185  16.390  68.828  0.00  0.00    -0.000 A 
ATOM     29  C   UNL     1      -9.131  15.004  68.907  0.00  0.00    -0.000 A 
ATOM     30  C   UNL     1     -10.238  14.376  69.441  0.00  0.00    +0.001 A 
ENDBRANCH  24  25
ENDBRANCH  21  24
ENDBRANCH  20  21
ENDBRANCH  19  20
ENDBRANCH  18  19
ENDBRANCH  17  18
ENDBRANCH  16  17
ENDBRANCH   1  16
TORSDOF 12
ENDMDL
MODEL 8
REMARK VINA RESULT:      -5.9      4.355      7.118
REMARK  Name = 
REMARK  12 active torsions:
REMARK  status: ('A' for Active; 'I' for Inactive)
REMARK    1  A    between atoms: C_2  and  C_5
REMARK    2  A    between atoms: C_5  and  C_6
REMARK    3  A    between atoms: C_6  and  C_9
REMARK    4  A    between atoms: C_12  and  O_13
REMARK    5  A    between atoms: O_13  and  C_14
REMARK    6  A    between atoms: C_14  and  C_15
REMARK    7  A    between atoms: C_15  and  O_16
REMARK    8  A    between atoms: O_16  and  C_17
REMARK    9  A    between atoms: C_17  and  C_18
REMARK   10  A    between atoms: C_18  and  N_19
REMARK   11  A    between atoms: N_19  and  C_22
REMARK   12  A    between atoms: C_22  and  C_23
REMARK                            x       y       z     vdW  Elec       q    Type
REMARK                         _______ _______ _______ _____ _____    ______ ____
ROOT
ATOM      1  O   UNL     1     -10.959  18.325  67.567  0.00  0.00    -0.473 OA
ENDROOT
BRANCH   1   5
ATOM      2  C   UNL     1     -10.642  14.380  66.489  0.00  0.00    -0.023 A 
ATOM      3  C   UNL     1      -9.745  15.273  65.913  0.00  0.00    -0.001 A 
ATOM      4  C   UNL     1      -9.751  16.596  66.342  0.00  0.00    +0.037 A 
ATOM      5  C   UNL     1     -10.516  17.006  67.427  0.00  0.00    +0.139 A 
ATOM      6  C   UNL     1     -11.029  15.980  68.210  0.00  0.00    +0.037 A 
ATOM      7  C   UNL     1     -11.355  14.764  67.619  0.00  0.00    -0.001 A 
BRANCH   2   8
ATOM      8  C   UNL     1     -11.301  13.329  65.654  0.00  0.00    +0.019 C 
ATOM      9  C   UNL     1     -12.673  13.848  65.266  0.00  0.00    +0.004 C 
ATOM     10  C   UNL     1     -10.554  13.062  64.377  0.00  0.00    +0.004 C 
BRANCH   8  11
ATOM     11  C   UNL     1     -11.500  12.103  66.496  0.00  0.00    +0.004 C 
BRANCH  11  13
ATOM     12  C   UNL     1     -10.237  10.482  65.046  0.00  0.00    +0.000 C 
ATOM     13  C   UNL     1     -10.370  11.117  66.409  0.00  0.00    +0.000 C 
ATOM     14  C   UNL     1     -10.677  10.016  67.419  0.00  0.00    +0.000 C 
ATOM     15  C   UNL     1      -9.037  11.714  66.827  0.00  0.00    +0.000 C 
ENDBRANCH  11  13
ENDBRANCH   8  11
ENDBRANCH   2   8
ENDBRANCH   1   5
BRANCH   1  16
ATOM     16  C   UNL     1     -10.470  19.268  66.620  0.00  0.00    +0.237 C 
BRANCH  16  17
ATOM     17  C   UNL     1      -9.903  20.422  67.436  0.00  0.00    +0.190 C 
BRANCH  17  18
ATOM     18  O   UNL     1      -8.937  19.851  68.280  0.00  0.00    -0.344 OA
BRANCH  18  19
ATOM     19  C   UNL     1      -7.764  19.763  67.515  0.00  0.00    +0.203 C 
BRANCH  19  20
ATOM     20  C   UNL     1      -6.584  20.002  68.449  0.00  0.00    +0.142 C 
BRANCH  20  21
ATOM     21  N   UNL     1      -5.824  18.757  68.527  0.00  0.00    +0.311 N 
ATOM     22  C   UNL     1      -5.717  18.352  69.900  0.00  0.00    +0.171 C 
ATOM     23  C   UNL     1      -4.493  19.074  68.020  0.00  0.00    +0.171 C 
BRANCH  21  24
ATOM     24  C   UNL     1      -6.486  17.809  67.679  0.00  0.00    +0.137 C 
BRANCH  24  25
ATOM     25  C   UNL     1      -6.521  16.439  68.200  0.00  0.00    +0.033 A 
ATOM     26  C   UNL     1      -7.428  15.937  69.090  0.00  0.00    +0.001 A 
ATOM     27  C   UNL     1      -7.675  14.570  69.086  0.00  0.00    -0.000 A 
ATOM     28  C   UNL     1      -6.620  13.728  68.756  0.00  0.00    -0.000 A 
ATOM     29  C   UNL     1      -5.502  14.237  68.107  0.00  0.00    -0.000 A 
ATOM     30  C   UNL     1      -5.578  15.552  67.694  0.00  0.00    +0.001 A 
ENDBRANCH  24  25
ENDBRANCH  21  24
ENDBRANCH  20  21
ENDBRANCH  19  20
ENDBRANCH  18  19
ENDBRANCH  17  18
ENDBRANCH  16  17
ENDBRANCH   1  16
TORSDOF 12
ENDMDL
MODEL 9
REMARK VINA RESULT:      -5.9      2.653      4.602
REMARK  Name = 
REMARK  12 active torsions:
REMARK  status: ('A' for Active; 'I' for Inactive)
REMARK    1  A    between atoms: C_2  and  C_5
REMARK    2  A    between atoms: C_5  and  C_6
REMARK    3  A    between atoms: C_6  and  C_9
REMARK    4  A    between atoms: C_12  and  O_13
REMARK    5  A    between atoms: O_13  and  C_14
REMARK    6  A    between atoms: C_14  and  C_15
REMARK    7  A    between atoms: C_15  and  O_16
REMARK    8  A    between atoms: O_16  and  C_17
REMARK    9  A    between atoms: C_17  and  C_18
REMARK   10  A    between atoms: C_18  and  N_19
REMARK   11  A    between atoms: N_19  and  C_22
REMARK   12  A    between atoms: C_22  and  C_23
REMARK                            x       y       z     vdW  Elec       q    Type
REMARK                         _______ _______ _______ _____ _____    ______ ____
ROOT
ATOM      1  O   UNL     1     -10.718  11.989  63.505  0.00  0.00    -0.473 OA
ENDROOT
BRANCH   1   5
ATOM      2  C   UNL     1      -9.394   9.516  66.497  0.00  0.00    -0.023 A 
ATOM      3  C   UNL     1      -9.237   9.074  65.188  0.00  0.00    -0.001 A 
ATOM      4  C   UNL     1      -9.569   9.936  64.149  0.00  0.00    +0.037 A 
ATOM      5  C   UNL     1      -9.905  11.263  64.381  0.00  0.00    +0.139 A 
ATOM      6  C   UNL     1      -9.610  11.732  65.655  0.00  0.00    +0.037 A 
ATOM      7  C   UNL     1      -9.659  10.860  66.736  0.00  0.00    -0.001 A 
BRANCH   2   8
ATOM      8  C   UNL     1      -9.883   8.578  67.556  0.00  0.00    +0.019 C 
ATOM      9  C   UNL     1     -10.708   7.506  66.869  0.00  0.00    +0.004 C 
ATOM     10  C   UNL     1      -8.757   7.881  68.266  0.00  0.00    +0.004 C 
BRANCH   8  11
ATOM     11  C   UNL     1     -10.796   9.332  68.479  0.00  0.00    +0.004 C 
BRANCH  11  13
ATOM     12  C   UNL     1     -10.796   7.700  70.393  0.00  0.00    +0.000 C 
ATOM     13  C   UNL     1     -10.504   9.109  69.935  0.00  0.00    +0.000 C 
ATOM     14  C   UNL     1     -11.412  10.059  70.709  0.00  0.00    +0.000 C 
ATOM     15  C   UNL     1      -9.081   9.483  70.312  0.00  0.00    +0.000 C 
ENDBRANCH  11  13
ENDBRANCH   8  11
ENDBRANCH   2   8
ENDBRANCH   1   5
BRANCH   1  16
ATOM     16  C   UNL     1     -12.051  12.242  63.931  0.00  0.00    +0.237 C 
BRANCH  16  17
ATOM     17  C   UNL     1     -12.140  13.746  64.154  0.00  0.00    +0.190 C 
BRANCH  17  18
ATOM     18  O   UNL     1     -13.036  13.918  65.222  0.00  0.00    -0.344 OA
BRANCH  18  19
ATOM     19  C   UNL     1     -12.245  13.981  66.378  0.00  0.00    +0.203 C 
BRANCH  19  20
ATOM     20  C   UNL     1     -11.203  15.073  66.166  0.00  0.00    +0.142 C 
BRANCH  20  21
ATOM     21  N   UNL     1     -10.490  15.254  67.428  0.00  0.00    +0.311 N 
ATOM     22  C   UNL     1      -9.077  15.288  67.174  0.00  0.00    +0.171 C 
ATOM     23  C   UNL     1     -10.800  14.075  68.230  0.00  0.00    +0.171 C 
BRANCH  21  24
ATOM     24  C   UNL     1     -11.012  16.443  68.037  0.00  0.00    +0.137 C 
BRANCH  24  25
ATOM     25  C   UNL     1     -10.356  17.685  67.617  0.00  0.00    +0.033 A 
ATOM     26  C   UNL     1     -10.502  18.308  66.411  0.00  0.00    +0.001 A 
ATOM     27  C   UNL     1     -10.275  19.677  66.338  0.00  0.00    -0.000 A 
ATOM     28  C   UNL     1      -9.313  20.214  67.183  0.00  0.00    -0.000 A 
ATOM     29  C   UNL     1      -8.879  19.492  68.288  0.00  0.00    -0.000 A 
ATOM     30  C   UNL     1      -9.556  18.320  68.560  0.00  0.00    +0.001 A 
ENDBRANCH  24  25
ENDBRANCH  21  24
ENDBRANCH  20  21
ENDBRANCH  19  20
ENDBRANCH  18  19
ENDBRANCH  17  18
ENDBRANCH  16  17
ENDBRANCH   1  16
TORSDOF 12
ENDMDL
