MODEL 1
REMARK VINA RESULT:      -8.0      0.000      0.000
REMARK  Name = 
REMARK  0 active torsions:
REMARK  status: ('A' for Active; 'I' for Inactive)
REMARK                            x       y       z     vdW  Elec       q    Type
REMARK                         _______ _______ _______ _____ _____    ______ ____
ROOT
ATOM      1  C   UNL     1     -10.689   8.066  72.513  0.00  0.00    +0.090 C 
ATOM      2  N   UNL     1     -11.134   9.109  71.627  0.00  0.00    -0.271 NA
ATOM      3  C   UNL     1     -12.491   9.481  71.974  0.00  0.00    +0.077 C 
ATOM      4  C   UNL     1     -12.902  10.710  71.170  0.00  0.00    +0.039 C 
ATOM      5  C   UNL     1     -11.896  11.081  70.161  0.00  0.00    -0.041 C 
ATOM      6  C   UNL     1     -11.658  12.344  69.807  0.00  0.00    -0.008 C 
ATOM      7  C   UNL     1     -10.888  12.509  68.569  0.00  0.00    -0.001 A 
ATOM      8  C   UNL     1     -10.494  13.721  68.034  0.00  0.00    -0.000 A 
ATOM      9  C   UNL     1      -9.712  13.649  66.890  0.00  0.00    -0.000 A 
ATOM     10  C   UNL     1      -9.686  12.485  66.133  0.00  0.00    -0.000 A 
ATOM     11  C   UNL     1     -10.518  11.419  66.454  0.00  0.00    -0.000 A 
ATOM     12  C   UNL     1     -10.980  15.074  68.313  0.00  0.00    -0.000 C 
ATOM     13  C   UNL     1     -11.982  15.444  69.110  0.00  0.00    -0.000 C 
ATOM     14  C   UNL     1     -12.435  14.729  70.310  0.00  0.00    -0.000 A 
ATOM     15  C   UNL     1     -12.816  15.605  71.316  0.00  0.00    -0.000 A 
ATOM     16  C   UNL     1     -13.625  15.099  72.321  0.00  0.00    -0.000 A 
ATOM     17  C   UNL     1     -13.770  13.744  72.447  0.00  0.00    -0.000 A 
ATOM     18  C   UNL     1     -13.005  12.867  71.688  0.00  0.00    -0.000 A 
ATOM     19  C   UNL     1     -10.919  11.363  67.783  0.00  0.00    -0.000 A 
ATOM     20  C   UNL     1     -12.395  13.360  70.547  0.00  0.00    -0.001 A 
ATOM     21  C   UNL     1     -11.219   9.980  69.418  0.00  0.00    +0.039 C 
ATOM     22  C   UNL     1     -11.152   8.708  70.238  0.00  0.00    +0.077 C 
ENDROOT
TORSDOF 0
ENDMDL
MODEL 2
REMARK VINA RESULT:      -8.0      1.563      5.422
REMARK  Name = 
REMARK  0 active torsions:
REMARK  status: ('A' for Active; 'I' for Inactive)
REMARK                            x       y       z     vdW  Elec       q    Type
REMARK                         _______ _______ _______ _____ _____    ______ ____
ROOT
ATOM      1  C   UNL     1     -12.088  16.243  73.224  0.00  0.00    +0.090 C 
ATOM      2  N   UNL     1     -12.283  15.133  72.330  0.00  0.00    -0.271 NA
ATOM      3  C   UNL     1     -12.750  15.629  71.050  0.00  0.00    +0.077 C 
ATOM      4  C   UNL     1     -12.777  14.486  70.041  0.00  0.00    +0.039 C 
ATOM      5  C   UNL     1     -12.488  13.183  70.663  0.00  0.00    -0.041 C 
ATOM      6  C   UNL     1     -11.839  12.207  70.029  0.00  0.00    -0.008 C 
ATOM      7  C   UNL     1     -11.937  10.884  70.656  0.00  0.00    -0.001 A 
ATOM      8  C   UNL     1     -11.316   9.738  70.195  0.00  0.00    -0.000 A 
ATOM      9  C   UNL     1     -11.485   8.605  70.978  0.00  0.00    -0.000 A 
ATOM     10  C   UNL     1     -12.520   8.542  71.902  0.00  0.00    -0.000 A 
ATOM     11  C   UNL     1     -13.455   9.566  71.982  0.00  0.00    -0.000 A 
ATOM     12  C   UNL     1     -10.731   9.448  68.885  0.00  0.00    -0.000 C 
ATOM     13  C   UNL     1     -10.727  10.214  67.794  0.00  0.00    -0.000 C 
ATOM     14  C   UNL     1     -10.750  11.682  67.774  0.00  0.00    -0.000 A 
ATOM     15  C   UNL     1      -9.962  12.193  66.752  0.00  0.00    -0.000 A 
ATOM     16  C   UNL     1     -10.203  13.502  66.365  0.00  0.00    -0.000 A 
ATOM     17  C   UNL     1     -10.968  14.309  67.163  0.00  0.00    -0.000 A 
ATOM     18  C   UNL     1     -11.378  13.891  68.422  0.00  0.00    -0.000 A 
ATOM     19  C   UNL     1     -13.014  10.804  71.532  0.00  0.00    -0.000 A 
ATOM     20  C   UNL     1     -11.345  12.534  68.698  0.00  0.00    -0.001 A 
ATOM     21  C   UNL     1     -13.068  12.913  72.009  0.00  0.00    +0.039 C 
ATOM     22  C   UNL     1     -13.274  14.190  72.799  0.00  0.00    +0.077 C 
ENDROOT
TORSDOF 0
ENDMDL
MODEL 3
REMARK VINA RESULT:      -7.8      2.258      6.347
REMARK  Name = 
REMARK  0 active torsions:
REMARK  status: ('A' for Active; 'I' for Inactive)
REMARK                            x       y       z     vdW  Elec       q    Type
REMARK                         _______ _______ _______ _____ _____    ______ ____
ROOT
ATOM      1  C   UNL     1      -8.556  17.353  67.456  0.00  0.00    +0.090 C 
ATOM      2  N   UNL     1      -9.604  16.426  67.794  0.00  0.00    -0.271 NA
ATOM      3  C   UNL     1     -10.008  15.709  66.601  0.00  0.00    +0.077 C 
ATOM      4  C   UNL     1     -10.978  14.596  66.980  0.00  0.00    +0.039 C 
ATOM      5  C   UNL     1     -11.364  14.649  68.400  0.00  0.00    -0.041 C 
ATOM      6  C   UNL     1     -11.622  13.559  69.122  0.00  0.00    -0.008 C 
ATOM      7  C   UNL     1     -12.312  13.802  70.393  0.00  0.00    -0.001 A 
ATOM      8  C   UNL     1     -12.644  12.827  71.316  0.00  0.00    -0.000 A 
ATOM      9  C   UNL     1     -13.233  13.282  72.487  0.00  0.00    -0.000 A 
ATOM     10  C   UNL     1     -13.807  14.546  72.535  0.00  0.00    -0.000 A 
ATOM     11  C   UNL     1     -13.888  15.326  71.388  0.00  0.00    -0.000 A 
ATOM     12  C   UNL     1     -12.725  11.374  71.161  0.00  0.00    -0.000 C 
ATOM     13  C   UNL     1     -12.562  10.651  70.052  0.00  0.00    -0.000 C 
ATOM     14  C   UNL     1     -11.714  11.011  68.909  0.00  0.00    -0.000 A 
ATOM     15  C   UNL     1     -11.088   9.898  68.364  0.00  0.00    -0.000 A 
ATOM     16  C   UNL     1     -10.598  10.018  67.073  0.00  0.00    -0.000 A 
ATOM     17  C   UNL     1     -10.486  11.260  66.510  0.00  0.00    -0.000 A 
ATOM     18  C   UNL     1     -10.706  12.409  67.259  0.00  0.00    -0.000 A 
ATOM     19  C   UNL     1     -12.940  15.041  70.413  0.00  0.00    -0.000 A 
ATOM     20  C   UNL     1     -11.411  12.286  68.444  0.00  0.00    -0.001 A 
ATOM     21  C   UNL     1     -11.602  15.991  69.005  0.00  0.00    +0.039 C 
ATOM     22  C   UNL     1     -10.789  17.069  68.317  0.00  0.00    +0.077 C 
ENDROOT
TORSDOF 0
ENDMDL
MODEL 4
REMARK VINA RESULT:      -7.7      2.765      5.620
REMARK  Name = 
REMARK  0 active torsions:
REMARK  status: ('A' for Active; 'I' for Inactive)
REMARK                            x       y       z     vdW  Elec       q    Type
REMARK                         _______ _______ _______ _____ _____    ______ ____
ROOT
ATOM      1  C   UNL     1     -14.149  14.804  72.229  0.00  0.00    +0.090 C 
ATOM      2  N   UNL     1     -13.132  14.965  71.223  0.00  0.00    -0.271 NA
ATOM      3  C   UNL     1     -12.476  13.692  71.001  0.00  0.00    +0.077 C 
ATOM      4  C   UNL     1     -11.534  13.806  69.808  0.00  0.00    +0.039 C 
ATOM      5  C   UNL     1     -11.420  15.189  69.315  0.00  0.00    -0.041 C 
ATOM      6  C   UNL     1     -11.240  15.486  68.029  0.00  0.00    -0.008 C 
ATOM      7  C   UNL     1     -10.811  16.863  67.762  0.00  0.00    -0.001 A 
ATOM      8  C   UNL     1     -10.602  17.401  66.505  0.00  0.00    -0.000 A 
ATOM      9  C   UNL     1     -10.265  18.746  66.474  0.00  0.00    -0.000 A 
ATOM     10  C   UNL     1      -9.779  19.372  67.615  0.00  0.00    -0.000 A 
ATOM     11  C   UNL     1      -9.531  18.637  68.768  0.00  0.00    -0.000 A 
ATOM     12  C   UNL     1     -10.415  16.733  65.216  0.00  0.00    -0.000 C 
ATOM     13  C   UNL     1     -10.331  15.425  64.967  0.00  0.00    -0.000 C 
ATOM     14  C   UNL     1     -10.972  14.359  65.748  0.00  0.00    -0.000 A 
ATOM     15  C   UNL     1     -11.425  13.330  64.934  0.00  0.00    -0.000 A 
ATOM     16  C   UNL     1     -11.673  12.109  65.541  0.00  0.00    -0.000 A 
ATOM     17  C   UNL     1     -11.748  12.040  66.906  0.00  0.00    -0.000 A 
ATOM     18  C   UNL     1     -11.733  13.191  67.684  0.00  0.00    -0.000 A 
ATOM     19  C   UNL     1     -10.266  17.465  68.890  0.00  0.00    -0.000 A 
ATOM     20  C   UNL     1     -11.252  14.356  67.109  0.00  0.00    -0.001 A 
ATOM     21  C   UNL     1     -11.371  16.284  70.326  0.00  0.00    +0.039 C 
ATOM     22  C   UNL     1     -12.102  15.907  71.599  0.00  0.00    +0.077 C 
ENDROOT
TORSDOF 0
ENDMDL
MODEL 5
REMARK VINA RESULT:      -7.6      1.584      4.615
REMARK  Name = 
REMARK  0 active torsions:
REMARK  status: ('A' for Active; 'I' for Inactive)
REMARK                            x       y       z     vdW  Elec       q    Type
REMARK                         _______ _______ _______ _____ _____    ______ ____
ROOT
ATOM      1  C   UNL     1     -10.133  10.309  64.728  0.00  0.00    +0.090 C 
ATOM      2  N   UNL     1     -10.257  10.660  66.119  0.00  0.00    -0.271 NA
ATOM      3  C   UNL     1      -9.455  11.838  66.385  0.00  0.00    +0.077 C 
ATOM      4  C   UNL     1      -9.728  12.328  67.803  0.00  0.00    +0.039 C 
ATOM      5  C   UNL     1     -10.586  11.401  68.560  0.00  0.00    -0.041 C 
ATOM      6  C   UNL     1     -11.463  11.812  69.476  0.00  0.00    -0.008 C 
ATOM      7  C   UNL     1     -11.977  10.761  70.361  0.00  0.00    -0.001 A 
ATOM      8  C   UNL     1     -12.920  10.950  71.355  0.00  0.00    -0.000 A 
ATOM      9  C   UNL     1     -13.319   9.807  72.032  0.00  0.00    -0.000 A 
ATOM     10  C   UNL     1     -12.534   8.661  71.992  0.00  0.00    -0.000 A 
ATOM     11  C   UNL     1     -11.297   8.678  71.360  0.00  0.00    -0.000 A 
ATOM     12  C   UNL     1     -13.376  12.185  71.995  0.00  0.00    -0.000 C 
ATOM     13  C   UNL     1     -12.925  13.427  71.812  0.00  0.00    -0.000 C 
ATOM     14  C   UNL     1     -12.333  13.952  70.575  0.00  0.00    -0.000 A 
ATOM     15  C   UNL     1     -12.705  15.270  70.348  0.00  0.00    -0.000 A 
ATOM     16  C   UNL     1     -11.922  16.003  69.471  0.00  0.00    -0.000 A 
ATOM     17  C   UNL     1     -11.028  15.354  68.664  0.00  0.00    -0.000 A 
ATOM     18  C   UNL     1     -10.998  13.966  68.597  0.00  0.00    -0.000 A 
ATOM     19  C   UNL     1     -11.154   9.641  70.368  0.00  0.00    -0.000 A 
ATOM     20  C   UNL     1     -11.594  13.255  69.626  0.00  0.00    -0.001 A 
ATOM     21  C   UNL     1     -10.357   9.939  68.381  0.00  0.00    +0.039 C 
ATOM     22  C   UNL     1      -9.788   9.624  67.012  0.00  0.00    +0.077 C 
ENDROOT
TORSDOF 0
ENDMDL
MODEL 6
REMARK VINA RESULT:      -7.6      2.007      6.272
REMARK  Name = 
REMARK  0 active torsions:
REMARK  status: ('A' for Active; 'I' for Inactive)
REMARK                            x       y       z     vdW  Elec       q    Type
REMARK                         _______ _______ _______ _____ _____    ______ ____
ROOT
ATOM      1  C   UNL     1     -10.663  16.439  69.164  0.00  0.00    +0.090 C 
ATOM      2  N   UNL     1     -11.056  15.071  68.947  0.00  0.00    -0.271 NA
ATOM      3  C   UNL     1     -11.661  14.954  67.635  0.00  0.00    +0.077 C 
ATOM      4  C   UNL     1     -11.906  13.483  67.318  0.00  0.00    +0.039 C 
ATOM      5  C   UNL     1     -11.622  12.608  68.468  0.00  0.00    -0.041 C 
ATOM      6  C   UNL     1     -11.136  11.374  68.336  0.00  0.00    -0.008 C 
ATOM      7  C   UNL     1     -11.236  10.534  69.535  0.00  0.00    -0.001 A 
ATOM      8  C   UNL     1     -10.765   9.238  69.638  0.00  0.00    -0.000 A 
ATOM      9  C   UNL     1     -10.899   8.646  70.886  0.00  0.00    -0.000 A 
ATOM     10  C   UNL     1     -11.797   9.162  71.811  0.00  0.00    -0.000 A 
ATOM     11  C   UNL     1     -12.640  10.210  71.464  0.00  0.00    -0.000 A 
ATOM     12  C   UNL     1     -10.388   8.288  68.590  0.00  0.00    -0.000 C 
ATOM     13  C   UNL     1     -10.485   8.435  67.268  0.00  0.00    -0.000 C 
ATOM     14  C   UNL     1     -10.410   9.706  66.537  0.00  0.00    -0.000 A 
ATOM     15  C   UNL     1      -9.739   9.565  65.331  0.00  0.00    -0.000 A 
ATOM     16  C   UNL     1      -9.942  10.550  64.377  0.00  0.00    -0.000 A 
ATOM     17  C   UNL     1     -10.532  11.729  64.745  0.00  0.00    -0.000 A 
ATOM     18  C   UNL     1     -10.790  12.016  66.079  0.00  0.00    -0.000 A 
ATOM     19  C   UNL     1     -12.183  11.017  70.430  0.00  0.00    -0.000 A 
ATOM     20  C   UNL     1     -10.812  10.962  66.977  0.00  0.00    -0.001 A 
ATOM     21  C   UNL     1     -12.026  13.086  69.821  0.00  0.00    +0.039 C 
ATOM     22  C   UNL     1     -12.033  14.600  69.902  0.00  0.00    +0.077 C 
ENDROOT
TORSDOF 0
ENDMDL
MODEL 7
REMARK VINA RESULT:      -7.3      1.960      5.081
REMARK  Name = 
REMARK  0 active torsions:
REMARK  status: ('A' for Active; 'I' for Inactive)
REMARK                            x       y       z     vdW  Elec       q    Type
REMARK                         _______ _______ _______ _____ _____    ______ ____
ROOT
ATOM      1  C   UNL     1     -13.933   9.147  72.350  0.00  0.00    +0.090 C 
ATOM      2  N   UNL     1     -13.015   9.656  71.365  0.00  0.00    -0.271 NA
ATOM      3  C   UNL     1     -11.707   9.073  71.589  0.00  0.00    +0.077 C 
ATOM      4  C   UNL     1     -10.778   9.455  70.442  0.00  0.00    +0.039 C 
ATOM      5  C   UNL     1     -11.394  10.425  69.521  0.00  0.00    -0.041 C 
ATOM      6  C   UNL     1     -11.145  10.439  68.212  0.00  0.00    -0.008 C 
ATOM      7  C   UNL     1     -11.563  11.658  67.512  0.00  0.00    -0.001 A 
ATOM      8  C   UNL     1     -11.439  11.876  66.152  0.00  0.00    -0.000 A 
ATOM      9  C   UNL     1     -11.962  13.073  65.683  0.00  0.00    -0.000 A 
ATOM     10  C   UNL     1     -12.204  14.121  66.561  0.00  0.00    -0.000 A 
ATOM     11  C   UNL     1     -11.833  14.020  67.897  0.00  0.00    -0.000 A 
ATOM     12  C   UNL     1     -10.616  11.182  65.160  0.00  0.00    -0.000 C 
ATOM     13  C   UNL     1      -9.727  10.208  65.359  0.00  0.00    -0.000 C 
ATOM     14  C   UNL     1      -9.770   9.212  66.437  0.00  0.00    -0.000 A 
ATOM     15  C   UNL     1      -9.338   7.967  66.002  0.00  0.00    -0.000 A 
ATOM     16  C   UNL     1      -8.947   7.060  66.975  0.00  0.00    -0.000 A 
ATOM     17  C   UNL     1      -9.266   7.300  68.284  0.00  0.00    -0.000 A 
ATOM     18  C   UNL     1     -10.102   8.351  68.638  0.00  0.00    -0.000 A 
ATOM     19  C   UNL     1     -11.742  12.723  68.387  0.00  0.00    -0.000 A 
ATOM     20  C   UNL     1     -10.287   9.370  67.718  0.00  0.00    -0.001 A 
ATOM     21  C   UNL     1     -12.223  11.513  70.113  0.00  0.00    +0.039 C 
ATOM     22  C   UNL     1     -12.851  11.091  71.426  0.00  0.00    +0.077 C 
ENDROOT
TORSDOF 0
ENDMDL
MODEL 8
REMARK VINA RESULT:      -7.1      2.170      5.062
REMARK  Name = 
REMARK  0 active torsions:
REMARK  status: ('A' for Active; 'I' for Inactive)
REMARK                            x       y       z     vdW  Elec       q    Type
REMARK                         _______ _______ _______ _____ _____    ______ ____
ROOT
ATOM      1  C   UNL     1     -14.901  14.810  71.882  0.00  0.00    +0.090 C 
ATOM      2  N   UNL     1     -13.747  14.680  71.032  0.00  0.00    -0.271 NA
ATOM      3  C   UNL     1     -12.943  13.564  71.489  0.00  0.00    +0.077 C 
ATOM      4  C   UNL     1     -11.824  13.300  70.487  0.00  0.00    +0.039 C 
ATOM      5  C   UNL     1     -11.761  14.328  69.435  0.00  0.00    -0.041 C 
ATOM      6  C   UNL     1     -11.392  14.060  68.182  0.00  0.00    -0.008 C 
ATOM      7  C   UNL     1     -11.059  15.232  67.366  0.00  0.00    -0.001 A 
ATOM      8  C   UNL     1     -10.689  15.195  66.035  0.00  0.00    -0.000 A 
ATOM      9  C   UNL     1     -10.483  16.427  65.432  0.00  0.00    -0.000 A 
ATOM     10  C   UNL     1     -10.264  17.558  66.209  0.00  0.00    -0.000 A 
ATOM     11  C   UNL     1     -10.148  17.451  67.590  0.00  0.00    -0.000 A 
ATOM     12  C   UNL     1     -10.219  14.073  65.221  0.00  0.00    -0.000 C 
ATOM     13  C   UNL     1      -9.968  12.821  65.606  0.00  0.00    -0.000 C 
ATOM     14  C   UNL     1     -10.628  12.112  66.710  0.00  0.00    -0.000 A 
ATOM     15  C   UNL     1     -10.833  10.773  66.409  0.00  0.00    -0.000 A 
ATOM     16  C   UNL     1     -11.063   9.916  67.474  0.00  0.00    -0.000 A 
ATOM     17  C   UNL     1     -11.364  10.437  68.703  0.00  0.00    -0.000 A 
ATOM     18  C   UNL     1     -11.594  11.797  68.868  0.00  0.00    -0.000 A 
ATOM     19  C   UNL     1     -10.777  16.345  68.150  0.00  0.00    -0.000 A 
ATOM     20  C   UNL     1     -11.137  12.657  67.883  0.00  0.00    -0.001 A 
ATOM     21  C   UNL     1     -11.993  15.745  69.834  0.00  0.00    +0.039 C 
ATOM     22  C   UNL     1     -12.892  15.846  71.050  0.00  0.00    +0.077 C 
ENDROOT
TORSDOF 0
ENDMDL
MODEL 9
REMARK VINA RESULT:      -7.0      2.423      5.009
REMARK  Name = 
REMARK  0 active torsions:
REMARK  status: ('A' for Active; 'I' for Inactive)
REMARK                            x       y       z     vdW  Elec       q    Type
REMARK                         _______ _______ _______ _____ _____    ______ ____
ROOT
ATOM      1  C   UNL     1      -7.154   8.281  65.005  0.00  0.00    +0.090 C 
ATOM      2  N   UNL     1      -8.338   8.762  65.667  0.00  0.00    -0.271 NA
ATOM      3  C   UNL     1      -9.110   7.631  66.141  0.00  0.00    +0.077 C 
ATOM      4  C   UNL     1     -10.262   8.130  67.006  0.00  0.00    +0.039 C 
ATOM      5  C   UNL     1     -10.378   9.598  66.994  0.00  0.00    -0.041 C 
ATOM      6  C   UNL     1     -10.791  10.301  68.048  0.00  0.00    -0.008 C 
ATOM      7  C   UNL     1     -11.169  11.689  67.762  0.00  0.00    -0.001 A 
ATOM      8  C   UNL     1     -11.589  12.608  68.705  0.00  0.00    -0.000 A 
ATOM      9  C   UNL     1     -11.832  13.890  68.231  0.00  0.00    -0.000 A 
ATOM     10  C   UNL     1     -12.035  14.105  66.874  0.00  0.00    -0.000 A 
ATOM     11  C   UNL     1     -12.097  13.033  65.993  0.00  0.00    -0.000 A 
ATOM     12  C   UNL     1     -12.075  12.400  70.070  0.00  0.00    -0.000 C 
ATOM     13  C   UNL     1     -12.296  11.246  70.702  0.00  0.00    -0.000 C 
ATOM     14  C   UNL     1     -11.587   9.984  70.459  0.00  0.00    -0.000 A 
ATOM     15  C   UNL     1     -11.377   9.279  71.636  0.00  0.00    -0.000 A 
ATOM     16  C   UNL     1     -11.097   7.927  71.520  0.00  0.00    -0.000 A 
ATOM     17  C   UNL     1     -10.755   7.414  70.298  0.00  0.00    -0.000 A 
ATOM     18  C   UNL     1     -10.535   8.246  69.207  0.00  0.00    -0.000 A 
ATOM     19  C   UNL     1     -11.435  11.886  66.412  0.00  0.00    -0.000 A 
ATOM     20  C   UNL     1     -11.040   9.534  69.262  0.00  0.00    -0.001 A 
ATOM     21  C   UNL     1     -10.149  10.301  65.699  0.00  0.00    +0.039 C 
ATOM     22  C   UNL     1      -9.205   9.528  64.800  0.00  0.00    +0.077 C 
ENDROOT
TORSDOF 0
ENDMDL
