MODEL 1
REMARK VINA RESULT:      -7.0      0.000      0.000
REMARK  Name = 
REMARK  9 active torsions:
REMARK  status: ('A' for Active; 'I' for Inactive)
REMARK    1  A    between atoms: C_2  and  O_3
REMARK    2  A    between atoms: O_3  and  C_4
REMARK    3  A    between atoms: C_4  and  O_6
REMARK    4  A    between atoms: O_6  and  C_7
REMARK    5  A    between atoms: C_7  and  C_8
REMARK    6  A    between atoms: C_8  and  C_10
REMARK    7  A    between atoms: C_10  and  O_11
REMARK    8  A    between atoms: O_11  and  C_12
REMARK    9  A    between atoms: C_12  and  C_14
REMARK                            x       y       z     vdW  Elec       q    Type
REMARK                         _______ _______ _______ _____ _____    ______ ____
ROOT
ATOM      1  C   UNL     1     -11.116  13.764  67.095  0.00  0.00    +0.193 C 
ATOM      2  C   UNL     1     -10.873  12.599  67.955  0.00  0.00    +0.043 C 
ATOM      3  C   UNL     1     -10.648  11.473  66.788  0.00  0.00    +0.004 C 
ATOM      4  C   UNL     1      -9.661  10.502  67.795  0.00  0.00    +0.003 C 
ATOM      5  C   UNL     1     -11.001   9.776  68.525  0.00  0.00    +0.038 C 
ATOM      6  C   UNL     1     -11.073  11.008  69.743  0.00  0.00    +0.153 C 
ATOM      7  O   UNL     1     -12.365  10.402  70.317  0.00  0.00    -0.223 OA
ATOM      8  C   UNL     1     -10.113   8.788  69.420  0.00  0.00    +0.036 C 
ATOM      9  C   UNL     1      -9.355   7.878  68.543  0.00  0.00    -0.038 C 
ATOM     10  C   UNL     1      -8.662   6.957  69.219  0.00  0.00    +0.034 C 
ATOM     11  C   UNL     1      -9.080   6.532  70.563  0.00  0.00    +0.195 C 
ATOM     12  C   UNL     1     -10.413   7.013  70.951  0.00  0.00    +0.038 C 
ATOM     13  O   UNL     1      -8.252   6.070  71.406  0.00  0.00    -0.287 OA
ATOM     14  C   UNL     1      -8.687   8.308  67.275  0.00  0.00    +0.022 C 
ATOM     15  C   UNL     1      -9.196   9.499  70.307  0.00  0.00    +0.009 C 
ATOM     16  C   UNL     1     -11.039   7.939  70.220  0.00  0.00    -0.020 C 
ATOM     17  C   UNL     1      -9.574   9.351  66.661  0.00  0.00    +0.004 C 
ATOM     18  C   UNL     1      -9.360  12.321  66.227  0.00  0.00    +0.004 C 
ATOM     19  C   UNL     1      -9.562  12.830  68.611  0.00  0.00    +0.004 C 
ATOM     20  C   UNL     1     -11.956  12.024  68.747  0.00  0.00    +0.037 C 
ATOM     21  C   UNL     1     -10.143  13.582  65.933  0.00  0.00    +0.048 C 
ENDROOT
BRANCH   1  22
ATOM     22  C   UNL     1     -10.709  14.985  67.875  0.00  0.00    +0.230 C 
ATOM     23  O   UNL     1      -9.765  15.629  67.421  0.00  0.00    -0.288 OA
BRANCH  22  24
ATOM     24  C   UNL     1     -11.697  15.527  68.824  0.00  0.00    +0.276 C 
BRANCH  24  25
ATOM     25  O   UNL     1     -11.185  15.859  70.079  0.00  0.00    -0.440 OA
BRANCH  25  26
ATOM     26  C   UNL     1     -12.024  15.598  71.167  0.00  0.00    +0.317 C 
ATOM     27  O   UNL     1     -11.966  16.322  72.206  0.00  0.00    -0.250 OA
BRANCH  26  28
ATOM     28  C   UNL     1     -13.267  14.783  71.023  0.00  0.00    +0.110 C 
ATOM     29  C   UNL     1     -13.328  13.783  72.162  0.00  0.00    +0.012 C 
ENDBRANCH  26  28
ENDBRANCH  25  26
ENDBRANCH  24  25
ENDBRANCH  22  24
ENDBRANCH   1  22
BRANCH   1  30
ATOM     30  O   UNL     1     -12.421  13.983  66.657  0.00  0.00    -0.418 OA
BRANCH  30  31
ATOM     31  C   UNL     1     -12.617  13.763  65.289  0.00  0.00    +0.512 C 
ATOM     32  O   UNL     1     -12.608  14.709  64.444  0.00  0.00    -0.203 OA
BRANCH  31  33
ATOM     33  O   UNL     1     -12.965  12.520  64.770  0.00  0.00    -0.418 OA
BRANCH  33  35
ATOM     34  C   UNL     1     -11.370  11.432  63.348  0.00  0.00    +0.051 C 
ATOM     35  C   UNL     1     -12.606  12.219  63.423  0.00  0.00    +0.212 C 
ENDBRANCH  33  35
ENDBRANCH  31  33
ENDBRANCH  30  31
ENDBRANCH   1  30
TORSDOF 9
ENDMDL
MODEL 2
REMARK VINA RESULT:      -6.8      4.215      8.875
REMARK  Name = 
REMARK  9 active torsions:
REMARK  status: ('A' for Active; 'I' for Inactive)
REMARK    1  A    between atoms: C_2  and  O_3
REMARK    2  A    between atoms: O_3  and  C_4
REMARK    3  A    between atoms: C_4  and  O_6
REMARK    4  A    between atoms: O_6  and  C_7
REMARK    5  A    between atoms: C_7  and  C_8
REMARK    6  A    between atoms: C_8  and  C_10
REMARK    7  A    between atoms: C_10  and  O_11
REMARK    8  A    between atoms: O_11  and  C_12
REMARK    9  A    between atoms: C_12  and  C_14
REMARK                            x       y       z     vdW  Elec       q    Type
REMARK                         _______ _______ _______ _____ _____    ______ ____
ROOT
ATOM      1  C   UNL     1     -10.516  15.264  68.194  0.00  0.00    +0.193 C 
ATOM      2  C   UNL     1      -9.576  16.187  67.548  0.00  0.00    +0.043 C 
ATOM      3  C   UNL     1      -8.771  16.693  68.881  0.00  0.00    +0.004 C 
ATOM      4  C   UNL     1      -7.351  17.046  67.993  0.00  0.00    +0.003 C 
ATOM      5  C   UNL     1      -7.938  18.559  67.523  0.00  0.00    +0.038 C 
ATOM      6  C   UNL     1      -8.684  17.890  66.108  0.00  0.00    +0.153 C 
ATOM      7  O   UNL     1      -9.314  19.251  65.764  0.00  0.00    -0.223 OA
ATOM      8  C   UNL     1      -6.592  18.964  66.757  0.00  0.00    +0.036 C 
ATOM      9  C   UNL     1      -5.480  19.038  67.721  0.00  0.00    -0.038 C 
ATOM     10  C   UNL     1      -4.339  19.466  67.173  0.00  0.00    +0.034 C 
ATOM     11  C   UNL     1      -4.348  20.311  65.970  0.00  0.00    +0.195 C 
ATOM     12  C   UNL     1      -5.679  20.818  65.611  0.00  0.00    +0.038 C 
ATOM     13  O   UNL     1      -3.370  20.335  65.161  0.00  0.00    -0.287 OA
ATOM     14  C   UNL     1      -5.272  18.053  68.828  0.00  0.00    +0.022 C 
ATOM     15  C   UNL     1      -6.252  18.036  65.681  0.00  0.00    +0.009 C 
ATOM     16  C   UNL     1      -6.772  20.336  66.206  0.00  0.00    -0.020 C 
ATOM     17  C   UNL     1      -6.637  17.661  69.310  0.00  0.00    +0.004 C 
ATOM     18  C   UNL     1      -8.289  15.150  69.167  0.00  0.00    +0.004 C 
ATOM     19  C   UNL     1      -8.644  15.347  66.755  0.00  0.00    +0.004 C 
ATOM     20  C   UNL     1     -10.049  17.440  66.968  0.00  0.00    +0.037 C 
ATOM     21  C   UNL     1      -9.690  14.589  69.286  0.00  0.00    +0.048 C 
ENDROOT
BRANCH   1  22
ATOM     22  C   UNL     1     -10.897  14.228  67.172  0.00  0.00    +0.230 C 
ATOM     23  O   UNL     1     -10.513  13.081  67.392  0.00  0.00    -0.288 OA
BRANCH  22  24
ATOM     24  C   UNL     1     -12.008  14.565  66.266  0.00  0.00    +0.276 C 
BRANCH  24  25
ATOM     25  O   UNL     1     -11.770  14.293  64.917  0.00  0.00    -0.440 OA
BRANCH  25  26
ATOM     26  C   UNL     1     -12.114  13.009  64.485  0.00  0.00    +0.317 C 
ATOM     27  O   UNL     1     -13.285  12.562  64.679  0.00  0.00    -0.250 OA
BRANCH  26  28
ATOM     28  C   UNL     1     -11.319  12.288  63.447  0.00  0.00    +0.110 C 
ATOM     29  C   UNL     1     -10.301  11.403  64.141  0.00  0.00    +0.012 C 
ENDBRANCH  26  28
ENDBRANCH  25  26
ENDBRANCH  24  25
ENDBRANCH  22  24
ENDBRANCH   1  22
BRANCH   1  30
ATOM     30  O   UNL     1     -11.706  15.795  68.691  0.00  0.00    -0.418 OA
BRANCH  30  31
ATOM     31  C   UNL     1     -12.061  15.331  69.963  0.00  0.00    +0.512 C 
ATOM     32  O   UNL     1     -12.676  14.235  70.136  0.00  0.00    -0.203 OA
BRANCH  31  33
ATOM     33  O   UNL     1     -11.888  16.092  71.114  0.00  0.00    -0.418 OA
BRANCH  33  35
ATOM     34  C   UNL     1     -12.823  15.881  73.313  0.00  0.00    +0.051 C 
ATOM     35  C   UNL     1     -11.799  15.419  72.369  0.00  0.00    +0.212 C 
ENDBRANCH  33  35
ENDBRANCH  31  33
ENDBRANCH  30  31
ENDBRANCH   1  30
TORSDOF 9
ENDMDL
MODEL 3
REMARK VINA RESULT:      -6.7      4.588      7.766
REMARK  Name = 
REMARK  9 active torsions:
REMARK  status: ('A' for Active; 'I' for Inactive)
REMARK    1  A    between atoms: C_2  and  O_3
REMARK    2  A    between atoms: O_3  and  C_4
REMARK    3  A    between atoms: C_4  and  O_6
REMARK    4  A    between atoms: O_6  and  C_7
REMARK    5  A    between atoms: C_7  and  C_8
REMARK    6  A    between atoms: C_8  and  C_10
REMARK    7  A    between atoms: C_10  and  O_11
REMARK    8  A    between atoms: O_11  and  C_12
REMARK    9  A    between atoms: C_12  and  C_14
REMARK                            x       y       z     vdW  Elec       q    Type
REMARK                         _______ _______ _______ _____ _____    ______ ____
ROOT
ATOM      1  C   UNL     1     -10.078  15.832  66.813  0.00  0.00    +0.193 C 
ATOM      2  C   UNL     1      -8.783  16.148  67.428  0.00  0.00    +0.043 C 
ATOM      3  C   UNL     1      -8.580  17.654  66.818  0.00  0.00    +0.004 C 
ATOM      4  C   UNL     1      -7.596  18.144  68.131  0.00  0.00    +0.003 C 
ATOM      5  C   UNL     1      -6.215  17.458  67.441  0.00  0.00    +0.038 C 
ATOM      6  C   UNL     1      -6.523  15.934  68.211  0.00  0.00    +0.153 C 
ATOM      7  O   UNL     1      -5.333  15.293  67.476  0.00  0.00    -0.223 OA
ATOM      8  C   UNL     1      -5.246  17.976  68.605  0.00  0.00    +0.036 C 
ATOM      9  C   UNL     1      -5.229  19.449  68.613  0.00  0.00    -0.038 C 
ATOM     10  C   UNL     1      -4.365  19.959  69.496  0.00  0.00    +0.034 C 
ATOM     11  C   UNL     1      -3.190  19.191  69.933  0.00  0.00    +0.195 C 
ATOM     12  C   UNL     1      -2.944  17.978  69.141  0.00  0.00    +0.038 C 
ATOM     13  O   UNL     1      -2.643  19.390  71.061  0.00  0.00    -0.287 OA
ATOM     14  C   UNL     1      -6.447  20.296  68.420  0.00  0.00    +0.022 C 
ATOM     15  C   UNL     1      -5.629  17.479  69.924  0.00  0.00    +0.009 C 
ATOM     16  C   UNL     1      -3.861  17.534  68.279  0.00  0.00    -0.020 C 
ATOM     17  C   UNL     1      -7.313  19.576  67.429  0.00  0.00    +0.004 C 
ATOM     18  C   UNL     1      -9.952  18.138  67.578  0.00  0.00    +0.004 C 
ATOM     19  C   UNL     1      -9.035  16.285  68.884  0.00  0.00    +0.004 C 
ATOM     20  C   UNL     1      -7.570  15.463  66.993  0.00  0.00    +0.037 C 
ATOM     21  C   UNL     1     -10.855  17.145  66.879  0.00  0.00    +0.048 C 
ENDROOT
BRANCH   1  22
ATOM     22  C   UNL     1     -10.760  14.827  67.701  0.00  0.00    +0.230 C 
ATOM     23  O   UNL     1     -11.805  15.195  68.235  0.00  0.00    -0.288 OA
BRANCH  22  24
ATOM     24  C   UNL     1     -10.377  13.416  67.524  0.00  0.00    +0.276 C 
BRANCH  24  25
ATOM     25  O   UNL     1     -10.404  12.649  68.690  0.00  0.00    -0.440 OA
BRANCH  25  26
ATOM     26  C   UNL     1     -11.529  11.836  68.858  0.00  0.00    +0.317 C 
ATOM     27  O   UNL     1     -11.995  11.180  67.879  0.00  0.00    -0.250 OA
BRANCH  26  28
ATOM     28  C   UNL     1     -11.969  11.372  70.207  0.00  0.00    +0.110 C 
ATOM     29  C   UNL     1     -11.209  10.106  70.558  0.00  0.00    +0.012 C 
ENDBRANCH  26  28
ENDBRANCH  25  26
ENDBRANCH  24  25
ENDBRANCH  22  24
ENDBRANCH   1  22
BRANCH   1  30
ATOM     30  O   UNL     1     -10.070  15.292  65.528  0.00  0.00    -0.418 OA
BRANCH  30  31
ATOM     31  C   UNL     1     -11.149  15.683  64.728  0.00  0.00    +0.512 C 
ATOM     32  O   UNL     1     -11.234  16.846  64.229  0.00  0.00    -0.203 OA
BRANCH  31  33
ATOM     33  O   UNL     1     -12.267  14.879  64.529  0.00  0.00    -0.418 OA
BRANCH  33  35
ATOM     34  C   UNL     1     -12.563  12.507  64.738  0.00  0.00    +0.051 C 
ATOM     35  C   UNL     1     -12.091  13.613  63.896  0.00  0.00    +0.212 C 
ENDBRANCH  33  35
ENDBRANCH  31  33
ENDBRANCH  30  31
ENDBRANCH   1  30
TORSDOF 9
ENDMDL
MODEL 4
REMARK VINA RESULT:      -6.7      1.681      2.426
REMARK  Name = 
REMARK  9 active torsions:
REMARK  status: ('A' for Active; 'I' for Inactive)
REMARK    1  A    between atoms: C_2  and  O_3
REMARK    2  A    between atoms: O_3  and  C_4
REMARK    3  A    between atoms: C_4  and  O_6
REMARK    4  A    between atoms: O_6  and  C_7
REMARK    5  A    between atoms: C_7  and  C_8
REMARK    6  A    between atoms: C_8  and  C_10
REMARK    7  A    between atoms: C_10  and  O_11
REMARK    8  A    between atoms: O_11  and  C_12
REMARK    9  A    between atoms: C_12  and  C_14
REMARK                            x       y       z     vdW  Elec       q    Type
REMARK                         _______ _______ _______ _____ _____    ______ ____
ROOT
ATOM      1  C   UNL     1     -10.567  13.738  66.820  0.00  0.00    +0.193 C 
ATOM      2  C   UNL     1     -10.573  12.661  67.817  0.00  0.00    +0.043 C 
ATOM      3  C   UNL     1     -10.855  11.398  66.814  0.00  0.00    +0.004 C 
ATOM      4  C   UNL     1     -10.079  10.285  67.859  0.00  0.00    +0.003 C 
ATOM      5  C   UNL     1     -11.465  10.105  68.808  0.00  0.00    +0.038 C 
ATOM      6  C   UNL     1     -11.001  11.425  69.832  0.00  0.00    +0.153 C 
ATOM      7  O   UNL     1     -12.326  11.326  70.606  0.00  0.00    -0.223 OA
ATOM      8  C   UNL     1     -10.804   8.995  69.753  0.00  0.00    +0.036 C 
ATOM      9  C   UNL     1     -10.477   7.800  68.955  0.00  0.00    -0.038 C 
ATOM     10  C   UNL     1     -10.010   6.788  69.693  0.00  0.00    +0.034 C 
ATOM     11  C   UNL     1     -10.352   6.671  71.118  0.00  0.00    +0.195 C 
ATOM     12  C   UNL     1     -11.415   7.588  71.551  0.00  0.00    +0.038 C 
ATOM     13  O   UNL     1      -9.596   6.069  71.941  0.00  0.00    -0.287 OA
ATOM     14  C   UNL     1      -9.888   7.852  67.581  0.00  0.00    +0.022 C 
ATOM     15  C   UNL     1      -9.606   9.474  70.437  0.00  0.00    +0.009 C 
ATOM     16  C   UNL     1     -11.826   8.576  70.753  0.00  0.00    -0.020 C 
ATOM     17  C   UNL     1     -10.495   9.045  66.904  0.00  0.00    +0.004 C 
ATOM     18  C   UNL     1      -9.458  11.727  66.018  0.00  0.00    +0.004 C 
ATOM     19  C   UNL     1      -9.177  12.539  68.308  0.00  0.00    +0.004 C 
ATOM     20  C   UNL     1     -11.662  12.549  68.782  0.00  0.00    +0.037 C 
ATOM     21  C   UNL     1      -9.858  13.130  65.613  0.00  0.00    +0.048 C 
ENDROOT
BRANCH   1  22
ATOM     22  C   UNL     1      -9.713  14.848  67.369  0.00  0.00    +0.230 C 
ATOM     23  O   UNL     1      -8.637  15.035  66.805  0.00  0.00    -0.288 OA
BRANCH  22  24
ATOM     24  C   UNL     1     -10.386  15.851  68.212  0.00  0.00    +0.276 C 
BRANCH  24  25
ATOM     25  O   UNL     1     -10.584  17.093  67.604  0.00  0.00    -0.440 OA
BRANCH  25  26
ATOM     26  C   UNL     1      -9.870  18.161  68.156  0.00  0.00    +0.317 C 
ATOM     27  O   UNL     1      -8.713  17.974  68.639  0.00  0.00    -0.250 OA
BRANCH  26  28
ATOM     28  C   UNL     1     -10.212  19.580  67.842  0.00  0.00    +0.110 C 
ATOM     29  C   UNL     1     -10.491  19.696  66.356  0.00  0.00    +0.012 C 
ENDBRANCH  26  28
ENDBRANCH  25  26
ENDBRANCH  24  25
ENDBRANCH  22  24
ENDBRANCH   1  22
BRANCH   1  30
ATOM     30  O   UNL     1     -11.793  14.308  66.476  0.00  0.00    -0.418 OA
BRANCH  30  31
ATOM     31  C   UNL     1     -11.921  14.631  65.121  0.00  0.00    +0.512 C 
ATOM     32  O   UNL     1     -11.349  15.642  64.611  0.00  0.00    -0.203 OA
BRANCH  31  33
ATOM     33  O   UNL     1     -12.783  13.954  64.265  0.00  0.00    -0.418 OA
BRANCH  33  35
ATOM     34  C   UNL     1     -12.514  11.714  63.450  0.00  0.00    +0.051 C 
ATOM     35  C   UNL     1     -12.222  13.137  63.239  0.00  0.00    +0.212 C 
ENDBRANCH  33  35
ENDBRANCH  31  33
ENDBRANCH  30  31
ENDBRANCH   1  30
TORSDOF 9
ENDMDL
MODEL 5
REMARK VINA RESULT:      -6.6      4.752      7.755
REMARK  Name = 
REMARK  9 active torsions:
REMARK  status: ('A' for Active; 'I' for Inactive)
REMARK    1  A    between atoms: C_2  and  O_3
REMARK    2  A    between atoms: O_3  and  C_4
REMARK    3  A    between atoms: C_4  and  O_6
REMARK    4  A    between atoms: O_6  and  C_7
REMARK    5  A    between atoms: C_7  and  C_8
REMARK    6  A    between atoms: C_8  and  C_10
REMARK    7  A    between atoms: C_10  and  O_11
REMARK    8  A    between atoms: O_11  and  C_12
REMARK    9  A    between atoms: C_12  and  C_14
REMARK                            x       y       z     vdW  Elec       q    Type
REMARK                         _______ _______ _______ _____ _____    ______ ____
ROOT
ATOM      1  C   UNL     1      -9.911  16.160  66.798  0.00  0.00    +0.193 C 
ATOM      2  C   UNL     1      -8.613  16.435  67.425  0.00  0.00    +0.043 C 
ATOM      3  C   UNL     1      -8.347  17.925  66.800  0.00  0.00    +0.004 C 
ATOM      4  C   UNL     1      -7.362  18.395  68.119  0.00  0.00    +0.003 C 
ATOM      5  C   UNL     1      -5.999  17.650  67.455  0.00  0.00    +0.038 C 
ATOM      6  C   UNL     1      -6.371  16.149  68.239  0.00  0.00    +0.153 C 
ATOM      7  O   UNL     1      -5.198  15.455  67.527  0.00  0.00    -0.223 OA
ATOM      8  C   UNL     1      -5.025  18.147  68.625  0.00  0.00    +0.036 C 
ATOM      9  C   UNL     1      -4.954  19.618  68.615  0.00  0.00    -0.038 C 
ATOM     10  C   UNL     1      -4.083  20.107  69.503  0.00  0.00    +0.034 C 
ATOM     11  C   UNL     1      -2.942  19.302  69.963  0.00  0.00    +0.195 C 
ATOM     12  C   UNL     1      -2.731  18.072  69.189  0.00  0.00    +0.038 C 
ATOM     13  O   UNL     1      -2.401  19.494  71.096  0.00  0.00    -0.287 OA
ATOM     14  C   UNL     1      -6.138  20.507  68.398  0.00  0.00    +0.022 C 
ATOM     15  C   UNL     1      -5.442  17.680  69.944  0.00  0.00    +0.009 C 
ATOM     16  C   UNL     1      -3.653  17.650  68.321  0.00  0.00    -0.020 C 
ATOM     17  C   UNL     1      -7.018  19.807  67.404  0.00  0.00    +0.004 C 
ATOM     18  C   UNL     1      -9.710  18.469  67.537  0.00  0.00    +0.004 C 
ATOM     19  C   UNL     1      -8.877  16.599  68.877  0.00  0.00    +0.004 C 
ATOM     20  C   UNL     1      -7.421  15.701  67.014  0.00  0.00    +0.037 C 
ATOM     21  C   UNL     1     -10.640  17.501  66.838  0.00  0.00    +0.048 C 
ENDROOT
BRANCH   1  22
ATOM     22  C   UNL     1     -10.640  15.191  67.689  0.00  0.00    +0.230 C 
ATOM     23  O   UNL     1     -10.079  14.117  67.896  0.00  0.00    -0.288 OA
BRANCH  22  24
ATOM     24  C   UNL     1     -11.700  15.746  68.548  0.00  0.00    +0.276 C 
BRANCH  24  25
ATOM     25  O   UNL     1     -12.164  14.882  69.542  0.00  0.00    -0.440 OA
BRANCH  25  26
ATOM     26  C   UNL     1     -12.542  15.485  70.745  0.00  0.00    +0.317 C 
ATOM     27  O   UNL     1     -13.768  15.589  71.050  0.00  0.00    -0.250 OA
BRANCH  26  28
ATOM     28  C   UNL     1     -11.584  15.644  71.879  0.00  0.00    +0.110 C 
ATOM     29  C   UNL     1     -12.367  15.977  73.135  0.00  0.00    +0.012 C 
ENDBRANCH  26  28
ENDBRANCH  25  26
ENDBRANCH  24  25
ENDBRANCH  22  24
ENDBRANCH   1  22
BRANCH   1  30
ATOM     30  O   UNL     1      -9.907  15.604  65.519  0.00  0.00    -0.418 OA
BRANCH  30  31
ATOM     31  C   UNL     1     -11.106  15.762  64.815  0.00  0.00    +0.512 C 
ATOM     32  O   UNL     1     -11.355  16.800  64.130  0.00  0.00    -0.203 OA
BRANCH  31  33
ATOM     33  O   UNL     1     -12.161  14.862  64.918  0.00  0.00    -0.418 OA
BRANCH  33  35
ATOM     34  C   UNL     1     -12.045  12.516  65.404  0.00  0.00    +0.051 C 
ATOM     35  C   UNL     1     -11.998  13.555  64.369  0.00  0.00    +0.212 C 
ENDBRANCH  33  35
ENDBRANCH  31  33
ENDBRANCH  30  31
ENDBRANCH   1  30
TORSDOF 9
ENDMDL
MODEL 6
REMARK VINA RESULT:      -6.5      2.722      7.190
REMARK  Name = 
REMARK  9 active torsions:
REMARK  status: ('A' for Active; 'I' for Inactive)
REMARK    1  A    between atoms: C_2  and  O_3
REMARK    2  A    between atoms: O_3  and  C_4
REMARK    3  A    between atoms: C_4  and  O_6
REMARK    4  A    between atoms: O_6  and  C_7
REMARK    5  A    between atoms: C_7  and  C_8
REMARK    6  A    between atoms: C_8  and  C_10
REMARK    7  A    between atoms: C_10  and  O_11
REMARK    8  A    between atoms: O_11  and  C_12
REMARK    9  A    between atoms: C_12  and  C_14
REMARK                            x       y       z     vdW  Elec       q    Type
REMARK                         _______ _______ _______ _____ _____    ______ ____
ROOT
ATOM      1  C   UNL     1     -10.500  11.466  67.620  0.00  0.00    +0.193 C 
ATOM      2  C   UNL     1     -10.230  12.892  67.840  0.00  0.00    +0.043 C 
ATOM      3  C   UNL     1     -10.192  13.380  66.277  0.00  0.00    +0.004 C 
ATOM      4  C   UNL     1     -10.666  14.976  66.676  0.00  0.00    +0.003 C 
ATOM      5  C   UNL     1      -9.084  15.422  67.067  0.00  0.00    +0.038 C 
ATOM      6  C   UNL     1      -9.294  14.924  68.715  0.00  0.00    +0.153 C 
ATOM      7  O   UNL     1      -7.816  15.218  69.021  0.00  0.00    -0.223 OA
ATOM      8  C   UNL     1      -9.472  16.947  67.363  0.00  0.00    +0.036 C 
ATOM      9  C   UNL     1      -9.972  17.576  66.128  0.00  0.00    -0.038 C 
ATOM     10  C   UNL     1     -10.226  18.880  66.270  0.00  0.00    +0.034 C 
ATOM     11  C   UNL     1      -9.536  19.678  67.294  0.00  0.00    +0.195 C 
ATOM     12  C   UNL     1      -8.411  18.980  67.931  0.00  0.00    +0.038 C 
ATOM     13  O   UNL     1     -10.053  20.727  67.786  0.00  0.00    -0.287 OA
ATOM     14  C   UNL     1     -10.889  16.896  65.160  0.00  0.00    +0.022 C 
ATOM     15  C   UNL     1     -10.466  17.082  68.424  0.00  0.00    +0.009 C 
ATOM     16  C   UNL     1      -8.226  17.672  67.739  0.00  0.00    -0.020 C 
ATOM     17  C   UNL     1     -10.487  15.451  65.138  0.00  0.00    +0.004 C 
ATOM     18  C   UNL     1     -11.748  12.892  66.094  0.00  0.00    +0.004 C 
ATOM     19  C   UNL     1     -11.456  13.459  68.456  0.00  0.00    +0.004 C 
ATOM     20  C   UNL     1      -8.933  13.332  68.342  0.00  0.00    +0.037 C 
ATOM     21  C   UNL     1     -11.481  11.445  66.451  0.00  0.00    +0.048 C 
ENDROOT
BRANCH   1  22
ATOM     22  C   UNL     1     -11.204  10.952  68.846  0.00  0.00    +0.230 C 
ATOM     23  O   UNL     1     -12.421  10.803  68.751  0.00  0.00    -0.288 OA
BRANCH  22  24
ATOM     24  C   UNL     1     -10.370  10.290  69.864  0.00  0.00    +0.276 C 
BRANCH  24  25
ATOM     25  O   UNL     1     -11.041   9.938  71.036  0.00  0.00    -0.440 OA
BRANCH  25  26
ATOM     26  C   UNL     1     -10.508   8.855  71.741  0.00  0.00    +0.317 C 
ATOM     27  O   UNL     1      -9.296   8.871  72.116  0.00  0.00    -0.250 OA
BRANCH  26  28
ATOM     28  C   UNL     1     -11.380   7.865  72.439  0.00  0.00    +0.110 C 
ATOM     29  C   UNL     1     -12.396   7.327  71.449  0.00  0.00    +0.012 C 
ENDBRANCH  26  28
ENDBRANCH  25  26
ENDBRANCH  24  25
ENDBRANCH  22  24
ENDBRANCH   1  22
BRANCH   1  30
ATOM     30  O   UNL     1      -9.408  10.627  67.403  0.00  0.00    -0.418 OA
BRANCH  30  31
ATOM     31  C   UNL     1      -9.470   9.892  66.214  0.00  0.00    +0.512 C 
ATOM     32  O   UNL     1     -10.076   8.780  66.138  0.00  0.00    -0.203 OA
BRANCH  31  33
ATOM     33  O   UNL     1      -8.766  10.253  65.070  0.00  0.00    -0.418 OA
BRANCH  33  35
ATOM     34  C   UNL     1      -9.990  11.111  63.193  0.00  0.00    +0.051 C 
ATOM     35  C   UNL     1      -9.332   9.946  63.797  0.00  0.00    +0.212 C 
ENDBRANCH  33  35
ENDBRANCH  31  33
ENDBRANCH  30  31
ENDBRANCH   1  30
TORSDOF 9
ENDMDL
MODEL 7
REMARK VINA RESULT:      -6.2      1.786      2.717
REMARK  Name = 
REMARK  9 active torsions:
REMARK  status: ('A' for Active; 'I' for Inactive)
REMARK    1  A    between atoms: C_2  and  O_3
REMARK    2  A    between atoms: O_3  and  C_4
REMARK    3  A    between atoms: C_4  and  O_6
REMARK    4  A    between atoms: O_6  and  C_7
REMARK    5  A    between atoms: C_7  and  C_8
REMARK    6  A    between atoms: C_8  and  C_10
REMARK    7  A    between atoms: C_10  and  O_11
REMARK    8  A    between atoms: O_11  and  C_12
REMARK    9  A    between atoms: C_12  and  C_14
REMARK                            x       y       z     vdW  Elec       q    Type
REMARK                         _______ _______ _______ _____ _____    ______ ____
ROOT
ATOM      1  C   UNL     1     -10.939  12.306  66.914  0.00  0.00    +0.193 C 
ATOM      2  C   UNL     1     -10.813  11.429  68.084  0.00  0.00    +0.043 C 
ATOM      3  C   UNL     1     -11.016   9.986  67.335  0.00  0.00    +0.004 C 
ATOM      4  C   UNL     1     -10.108   9.148  68.519  0.00  0.00    +0.003 C 
ATOM      5  C   UNL     1     -11.438   9.029  69.554  0.00  0.00    +0.038 C 
ATOM      6  C   UNL     1     -11.057  10.546  70.304  0.00  0.00    +0.153 C 
ATOM      7  O   UNL     1     -12.340  10.480  71.150  0.00  0.00    -0.223 OA
ATOM      8  C   UNL     1     -10.646   8.165  70.646  0.00  0.00    +0.036 C 
ATOM      9  C   UNL     1     -10.243   6.877  70.056  0.00  0.00    -0.038 C 
ATOM     10  C   UNL     1      -9.661   6.057  70.936  0.00  0.00    +0.034 C 
ATOM     11  C   UNL     1      -9.941   6.170  72.375  0.00  0.00    +0.195 C 
ATOM     12  C   UNL     1     -11.065   7.061  72.693  0.00  0.00    +0.038 C 
ATOM     13  O   UNL     1      -9.106   5.790  73.252  0.00  0.00    -0.287 OA
ATOM     14  C   UNL     1      -9.709   6.729  68.666  0.00  0.00    +0.022 C 
ATOM     15  C   UNL     1      -9.473   8.857  71.173  0.00  0.00    +0.009 C 
ATOM     16  C   UNL     1     -11.591   7.851  71.754  0.00  0.00    -0.020 C 
ATOM     17  C   UNL     1     -10.444   7.726  67.821  0.00  0.00    +0.004 C 
ATOM     18  C   UNL     1      -9.683  10.280  66.423  0.00  0.00    +0.004 C 
ATOM     19  C   UNL     1      -9.396  11.512  68.517  0.00  0.00    +0.004 C 
ATOM     20  C   UNL     1     -11.853  11.405  69.107  0.00  0.00    +0.037 C 
ATOM     21  C   UNL     1     -10.221  11.549  65.798  0.00  0.00    +0.048 C 
ENDROOT
BRANCH   1  22
ATOM     22  C   UNL     1     -10.169  13.562  67.214  0.00  0.00    +0.230 C 
ATOM     23  O   UNL     1      -9.204  13.794  66.488  0.00  0.00    -0.288 OA
BRANCH  22  24
ATOM     24  C   UNL     1     -10.851  14.583  68.028  0.00  0.00    +0.276 C 
BRANCH  24  25
ATOM     25  O   UNL     1     -10.004  15.504  68.647  0.00  0.00    -0.440 OA
BRANCH  25  26
ATOM     26  C   UNL     1     -10.009  16.793  68.107  0.00  0.00    +0.317 C 
ATOM     27  O   UNL     1     -11.020  17.544  68.252  0.00  0.00    -0.250 OA
BRANCH  26  28
ATOM     28  C   UNL     1      -8.744  17.491  67.727  0.00  0.00    +0.110 C 
ATOM     29  C   UNL     1      -9.069  18.929  67.372  0.00  0.00    +0.012 C 
ENDBRANCH  26  28
ENDBRANCH  25  26
ENDBRANCH  24  25
ENDBRANCH  22  24
ENDBRANCH   1  22
BRANCH   1  30
ATOM     30  O   UNL     1     -12.222  12.702  66.537  0.00  0.00    -0.418 OA
BRANCH  30  31
ATOM     31  C   UNL     1     -12.406  12.832  65.156  0.00  0.00    +0.512 C 
ATOM     32  O   UNL     1     -13.098  12.007  64.486  0.00  0.00    -0.203 OA
BRANCH  31  33
ATOM     33  O   UNL     1     -11.743  13.791  64.397  0.00  0.00    -0.418 OA
BRANCH  33  35
ATOM     34  C   UNL     1     -11.144  16.096  64.682  0.00  0.00    +0.051 C 
ATOM     35  C   UNL     1     -12.222  15.134  64.427  0.00  0.00    +0.212 C 
ENDBRANCH  33  35
ENDBRANCH  31  33
ENDBRANCH  30  31
ENDBRANCH   1  30
TORSDOF 9
ENDMDL
MODEL 8
REMARK VINA RESULT:      -6.2      1.920      2.986
REMARK  Name = 
REMARK  9 active torsions:
REMARK  status: ('A' for Active; 'I' for Inactive)
REMARK    1  A    between atoms: C_2  and  O_3
REMARK    2  A    between atoms: O_3  and  C_4
REMARK    3  A    between atoms: C_4  and  O_6
REMARK    4  A    between atoms: O_6  and  C_7
REMARK    5  A    between atoms: C_7  and  C_8
REMARK    6  A    between atoms: C_8  and  C_10
REMARK    7  A    between atoms: C_10  and  O_11
REMARK    8  A    between atoms: O_11  and  C_12
REMARK    9  A    between atoms: C_12  and  C_14
REMARK                            x       y       z     vdW  Elec       q    Type
REMARK                         _______ _______ _______ _____ _____    ______ ____
ROOT
ATOM      1  C   UNL     1     -10.108  15.261  67.467  0.00  0.00    +0.193 C 
ATOM      2  C   UNL     1     -10.127  13.841  67.839  0.00  0.00    +0.043 C 
ATOM      3  C   UNL     1      -9.280  13.242  66.572  0.00  0.00    +0.004 C 
ATOM      4  C   UNL     1      -8.725  11.895  67.471  0.00  0.00    +0.003 C 
ATOM      5  C   UNL     1     -10.151  11.033  67.189  0.00  0.00    +0.038 C 
ATOM      6  C   UNL     1     -10.897  11.700  68.605  0.00  0.00    +0.153 C 
ATOM      7  O   UNL     1     -12.227  11.004  68.264  0.00  0.00    -0.223 OA
ATOM      8  C   UNL     1      -9.633   9.720  67.946  0.00  0.00    +0.036 C 
ATOM      9  C   UNL     1      -8.463   9.172  67.236  0.00  0.00    -0.038 C 
ATOM     10  C   UNL     1      -8.031   8.018  67.751  0.00  0.00    +0.034 C 
ATOM     11  C   UNL     1      -8.941   7.134  68.495  0.00  0.00    +0.195 C 
ATOM     12  C   UNL     1     -10.356   7.515  68.390  0.00  0.00    +0.038 C 
ATOM     13  O   UNL     1      -8.517   6.328  69.379  0.00  0.00    -0.287 OA
ATOM     14  C   UNL     1      -7.365  10.015  66.667  0.00  0.00    +0.022 C 
ATOM     15  C   UNL     1      -9.290   9.970  69.343  0.00  0.00    +0.009 C 
ATOM     16  C   UNL     1     -10.705   8.690  67.861  0.00  0.00    -0.020 C 
ATOM     17  C   UNL     1      -8.012  11.270  66.159  0.00  0.00    +0.004 C 
ATOM     18  C   UNL     1      -7.989  14.155  67.014  0.00  0.00    +0.004 C 
ATOM     19  C   UNL     1      -9.275  13.714  69.047  0.00  0.00    +0.004 C 
ATOM     20  C   UNL     1     -11.369  13.078  67.780  0.00  0.00    +0.037 C 
ATOM     21  C   UNL     1      -8.710  15.480  66.894  0.00  0.00    +0.048 C 
ENDROOT
BRANCH   1  22
ATOM     22  C   UNL     1     -10.235  16.056  68.738  0.00  0.00    +0.230 C 
ATOM     23  O   UNL     1      -9.289  16.791  69.015  0.00  0.00    -0.288 OA
BRANCH  22  24
ATOM     24  C   UNL     1     -11.590  16.214  69.292  0.00  0.00    +0.276 C 
BRANCH  24  25
ATOM     25  O   UNL     1     -11.663  16.192  70.686  0.00  0.00    -0.440 OA
BRANCH  25  26
ATOM     26  C   UNL     1     -12.511  15.226  71.236  0.00  0.00    +0.317 C 
ATOM     27  O   UNL     1     -12.260  13.993  71.083  0.00  0.00    -0.250 OA
BRANCH  26  28
ATOM     28  C   UNL     1     -13.464  15.553  72.338  0.00  0.00    +0.110 C 
ATOM     29  C   UNL     1     -12.698  15.596  73.647  0.00  0.00    +0.012 C 
ENDBRANCH  26  28
ENDBRANCH  25  26
ENDBRANCH  24  25
ENDBRANCH  22  24
ENDBRANCH   1  22
BRANCH   1  30
ATOM     30  O   UNL     1     -11.105  15.719  66.606  0.00  0.00    -0.418 OA
BRANCH  30  31
ATOM     31  C   UNL     1     -10.664  16.635  65.644  0.00  0.00    +0.512 C 
ATOM     32  O   UNL     1     -10.835  16.444  64.402  0.00  0.00    -0.203 OA
BRANCH  31  33
ATOM     33  O   UNL     1      -9.895  17.748  65.964  0.00  0.00    -0.418 OA
BRANCH  33  35
ATOM     34  C   UNL     1     -10.314  19.661  67.350  0.00  0.00    +0.051 C 
ATOM     35  C   UNL     1     -10.539  19.019  66.050  0.00  0.00    +0.212 C 
ENDBRANCH  33  35
ENDBRANCH  31  33
ENDBRANCH  30  31
ENDBRANCH   1  30
TORSDOF 9
ENDMDL
MODEL 9
REMARK VINA RESULT:      -6.1      2.731      7.278
REMARK  Name = 
REMARK  9 active torsions:
REMARK  status: ('A' for Active; 'I' for Inactive)
REMARK    1  A    between atoms: C_2  and  O_3
REMARK    2  A    between atoms: O_3  and  C_4
REMARK    3  A    between atoms: C_4  and  O_6
REMARK    4  A    between atoms: O_6  and  C_7
REMARK    5  A    between atoms: C_7  and  C_8
REMARK    6  A    between atoms: C_8  and  C_10
REMARK    7  A    between atoms: C_10  and  O_11
REMARK    8  A    between atoms: O_11  and  C_12
REMARK    9  A    between atoms: C_12  and  C_14
REMARK                            x       y       z     vdW  Elec       q    Type
REMARK                         _______ _______ _______ _____ _____    ______ ____
ROOT
ATOM      1  C   UNL     1     -10.485  11.486  67.506  0.00  0.00    +0.193 C 
ATOM      2  C   UNL     1     -10.203  12.906  67.749  0.00  0.00    +0.043 C 
ATOM      3  C   UNL     1     -10.205  13.428  66.197  0.00  0.00    +0.004 C 
ATOM      4  C   UNL     1     -10.660  15.017  66.642  0.00  0.00    +0.003 C 
ATOM      5  C   UNL     1      -9.066  15.447  67.000  0.00  0.00    +0.038 C 
ATOM      6  C   UNL     1      -9.234  14.914  68.642  0.00  0.00    +0.153 C 
ATOM      7  O   UNL     1      -7.746  15.196  68.913  0.00  0.00    -0.223 OA
ATOM      8  C   UNL     1      -9.439  16.967  67.339  0.00  0.00    +0.036 C 
ATOM      9  C   UNL     1      -9.970  17.624  66.132  0.00  0.00    -0.038 C 
ATOM     10  C   UNL     1     -10.214  18.926  66.308  0.00  0.00    +0.034 C 
ATOM     11  C   UNL     1      -9.492  19.699  67.330  0.00  0.00    +0.195 C 
ATOM     12  C   UNL     1      -8.354  18.983  67.922  0.00  0.00    +0.038 C 
ATOM     13  O   UNL     1      -9.991  20.739  67.859  0.00  0.00    -0.287 OA
ATOM     14  C   UNL     1     -10.915  16.970  65.175  0.00  0.00    +0.022 C 
ATOM     15  C   UNL     1     -10.404  17.083  68.429  0.00  0.00    +0.009 C 
ATOM     16  C   UNL     1      -8.181  17.679  67.696  0.00  0.00    -0.020 C 
ATOM     17  C   UNL     1     -10.521  15.523  65.111  0.00  0.00    +0.004 C 
ATOM     18  C   UNL     1     -11.767  12.949  66.045  0.00  0.00    +0.004 C 
ATOM     19  C   UNL     1     -11.409  13.464  68.410  0.00  0.00    +0.004 C 
ATOM     20  C   UNL     1      -8.890  13.330  68.225  0.00  0.00    +0.037 C 
ATOM     21  C   UNL     1     -11.497  11.494  66.363  0.00  0.00    +0.048 C 
ENDROOT
BRANCH   1  22
ATOM     22  C   UNL     1     -11.158  10.948  68.739  0.00  0.00    +0.230 C 
ATOM     23  O   UNL     1     -12.379  10.816  68.677  0.00  0.00    -0.288 OA
BRANCH  22  24
ATOM     24  C   UNL     1     -10.302  10.251  69.713  0.00  0.00    +0.276 C 
BRANCH  24  25
ATOM     25  O   UNL     1     -10.616   8.905  69.915  0.00  0.00    -0.440 OA
BRANCH  25  26
ATOM     26  C   UNL     1     -11.030   8.565  71.207  0.00  0.00    +0.317 C 
ATOM     27  O   UNL     1     -10.308   8.856  72.207  0.00  0.00    -0.250 OA
BRANCH  26  28
ATOM     28  C   UNL     1     -12.456   8.249  71.517  0.00  0.00    +0.110 C 
ATOM     29  C   UNL     1     -13.158   9.526  71.939  0.00  0.00    +0.012 C 
ENDBRANCH  26  28
ENDBRANCH  25  26
ENDBRANCH  24  25
ENDBRANCH  22  24
ENDBRANCH   1  22
BRANCH   1  30
ATOM     30  O   UNL     1      -9.403  10.648  67.241  0.00  0.00    -0.418 OA
BRANCH  30  31
ATOM     31  C   UNL     1      -9.648   9.677  66.263  0.00  0.00    +0.512 C 
ATOM     32  O   UNL     1      -9.343   9.853  65.045  0.00  0.00    -0.203 OA
BRANCH  31  33
ATOM     33  O   UNL     1     -10.358   8.510  66.525  0.00  0.00    -0.418 OA
BRANCH  33  35
ATOM     34  C   UNL     1      -8.486   7.394  67.529  0.00  0.00    +0.051 C 
ATOM     35  C   UNL     1      -9.638   7.282  66.626  0.00  0.00    +0.212 C 
ENDBRANCH  33  35
ENDBRANCH  31  33
ENDBRANCH  30  31
ENDBRANCH   1  30
TORSDOF 9
ENDMDL
