MODEL 1
REMARK VINA RESULT:      -4.6      0.000      0.000
REMARK  Name = 
REMARK  2 active torsions:
REMARK  status: ('A' for Active; 'I' for Inactive)
REMARK    1  A    between atoms: C_2  and  C_4
REMARK    2  A    between atoms: C_4  and  C_5
REMARK                            x       y       z     vdW  Elec       q    Type
REMARK                         _______ _______ _______ _____ _____    ______ ____
ROOT
ATOM      1  C   UNL     1     -12.930  12.718  71.512  0.00  0.00    -0.021 A 
ATOM      2  C   UNL     1     -12.166  13.243  70.488  0.00  0.00    -0.004 A 
ATOM      3  C   UNL     1     -11.748  12.437  69.437  0.00  0.00    -0.000 A 
ATOM      4  C   UNL     1     -11.981  11.090  69.553  0.00  0.00    -0.000 A 
ATOM      5  C   UNL     1     -12.481  10.514  70.690  0.00  0.00    -0.000 A 
ATOM      6  C   UNL     1     -12.993  11.351  71.654  0.00  0.00    -0.004 A 
ENDROOT
BRANCH   1   7
ATOM      7  C   UNL     1     -13.684  13.647  72.380  0.00  0.00    +0.045 C 
BRANCH   7   9
ATOM      8  C   UNL     1     -12.516  15.198  73.774  0.00  0.00    +0.021 C 
ATOM      9  C   UNL     1     -12.918  15.114  72.156  0.00  0.00    +0.096 C 
ATOM     10  N   UNL     1     -14.282  15.909  72.416  0.00  0.00    -0.133 NA
ENDBRANCH   7   9
ENDBRANCH   1   7
TORSDOF 2
ENDMDL
MODEL 2
REMARK VINA RESULT:      -4.5      0.419      1.565
REMARK  Name = 
REMARK  2 active torsions:
REMARK  status: ('A' for Active; 'I' for Inactive)
REMARK    1  A    between atoms: C_2  and  C_4
REMARK    2  A    between atoms: C_4  and  C_5
REMARK                            x       y       z     vdW  Elec       q    Type
REMARK                         _______ _______ _______ _____ _____    ______ ____
ROOT
ATOM      1  C   UNL     1     -12.964  12.810  71.524  0.00  0.00    -0.021 A 
ATOM      2  C   UNL     1     -13.135  11.456  71.740  0.00  0.00    -0.004 A 
ATOM      3  C   UNL     1     -12.402  10.529  71.013  0.00  0.00    -0.000 A 
ATOM      4  C   UNL     1     -11.644  11.009  69.974  0.00  0.00    -0.000 A 
ATOM      5  C   UNL     1     -11.684  12.314  69.562  0.00  0.00    -0.000 A 
ATOM      6  C   UNL     1     -12.322  13.219  70.378  0.00  0.00    -0.004 A 
ENDROOT
BRANCH   1   7
ATOM      7  C   UNL     1     -13.436  13.756  72.557  0.00  0.00    +0.045 C 
BRANCH   7   9
ATOM      8  C   UNL     1     -12.828  15.884  73.462  0.00  0.00    +0.021 C 
ATOM      9  C   UNL     1     -13.052  15.256  71.931  0.00  0.00    +0.096 C 
ATOM     10  N   UNL     1     -14.591  15.695  71.936  0.00  0.00    -0.133 NA
ENDBRANCH   7   9
ENDBRANCH   1   7
TORSDOF 2
ENDMDL
MODEL 3
REMARK VINA RESULT:      -4.3      1.317      2.205
REMARK  Name = 
REMARK  2 active torsions:
REMARK  status: ('A' for Active; 'I' for Inactive)
REMARK    1  A    between atoms: C_2  and  C_4
REMARK    2  A    between atoms: C_4  and  C_5
REMARK                            x       y       z     vdW  Elec       q    Type
REMARK                         _______ _______ _______ _____ _____    ______ ____
ROOT
ATOM      1  C   UNL     1     -12.493  12.214  70.838  0.00  0.00    -0.021 A 
ATOM      2  C   UNL     1     -13.089  11.281  71.667  0.00  0.00    -0.004 A 
ATOM      3  C   UNL     1     -12.662   9.961  71.661  0.00  0.00    -0.000 A 
ATOM      4  C   UNL     1     -11.759   9.600  70.692  0.00  0.00    -0.000 A 
ATOM      5  C   UNL     1     -11.373  10.440  69.682  0.00  0.00    -0.000 A 
ATOM      6  C   UNL     1     -11.719  11.767  69.792  0.00  0.00    -0.004 A 
ENDROOT
BRANCH   1   7
ATOM      7  C   UNL     1     -12.676  13.648  71.142  0.00  0.00    +0.045 C 
BRANCH   7   9
ATOM      8  C   UNL     1     -14.629  14.936  71.636  0.00  0.00    +0.021 C 
ATOM      9  C   UNL     1     -13.827  13.658  72.352  0.00  0.00    +0.096 C 
ATOM     10  N   UNL     1     -12.945  14.659  73.236  0.00  0.00    -0.133 NA
ENDBRANCH   7   9
ENDBRANCH   1   7
TORSDOF 2
ENDMDL
MODEL 4
REMARK VINA RESULT:      -4.3      3.299      4.741
REMARK  Name = 
REMARK  2 active torsions:
REMARK  status: ('A' for Active; 'I' for Inactive)
REMARK    1  A    between atoms: C_2  and  C_4
REMARK    2  A    between atoms: C_4  and  C_5
REMARK                            x       y       z     vdW  Elec       q    Type
REMARK                         _______ _______ _______ _____ _____    ______ ____
ROOT
ATOM      1  C   UNL     1     -11.892  15.512  71.116  0.00  0.00    -0.021 A 
ATOM      2  C   UNL     1     -13.113  15.037  70.676  0.00  0.00    -0.004 A 
ATOM      3  C   UNL     1     -14.251  15.193  71.455  0.00  0.00    -0.000 A 
ATOM      4  C   UNL     1     -14.075  15.675  72.728  0.00  0.00    -0.000 A 
ATOM      5  C   UNL     1     -12.841  15.881  73.283  0.00  0.00    -0.000 A 
ATOM      6  C   UNL     1     -11.751  15.835  72.446  0.00  0.00    -0.004 A 
ENDROOT
BRANCH   1   7
ATOM      7  C   UNL     1     -10.807  15.697  70.129  0.00  0.00    +0.045 C 
BRANCH   7   9
ATOM      8  C   UNL     1     -10.331  15.093  67.865  0.00  0.00    +0.021 C 
ATOM      9  C   UNL     1     -11.609  15.806  68.668  0.00  0.00    +0.096 C 
ATOM     10  N   UNL     1     -11.009  17.265  68.404  0.00  0.00    -0.133 NA
ENDBRANCH   7   9
ENDBRANCH   1   7
TORSDOF 2
ENDMDL
MODEL 5
REMARK VINA RESULT:      -4.2      1.675      2.469
REMARK  Name = 
REMARK  2 active torsions:
REMARK  status: ('A' for Active; 'I' for Inactive)
REMARK    1  A    between atoms: C_2  and  C_4
REMARK    2  A    between atoms: C_4  and  C_5
REMARK                            x       y       z     vdW  Elec       q    Type
REMARK                         _______ _______ _______ _____ _____    ______ ____
ROOT
ATOM      1  C   UNL     1     -12.144  14.328  70.508  0.00  0.00    -0.021 A 
ATOM      2  C   UNL     1     -11.825  15.562  69.975  0.00  0.00    -0.004 A 
ATOM      3  C   UNL     1     -11.653  15.714  68.606  0.00  0.00    -0.000 A 
ATOM      4  C   UNL     1     -11.645  14.571  67.847  0.00  0.00    -0.000 A 
ATOM      5  C   UNL     1     -11.673  13.315  68.390  0.00  0.00    -0.000 A 
ATOM      6  C   UNL     1     -11.965  13.207  69.729  0.00  0.00    -0.004 A 
ENDROOT
BRANCH   1   7
ATOM      7  C   UNL     1     -12.706  14.271  71.873  0.00  0.00    +0.045 C 
BRANCH   7   9
ATOM      8  C   UNL     1     -12.454  15.352  73.991  0.00  0.00    +0.021 C 
ATOM      9  C   UNL     1     -12.624  15.851  72.407  0.00  0.00    +0.096 C 
ATOM     10  N   UNL     1     -14.214  15.923  72.561  0.00  0.00    -0.133 NA
ENDBRANCH   7   9
ENDBRANCH   1   7
TORSDOF 2
ENDMDL
MODEL 6
REMARK VINA RESULT:      -4.2      2.655      4.606
REMARK  Name = 
REMARK  2 active torsions:
REMARK  status: ('A' for Active; 'I' for Inactive)
REMARK    1  A    between atoms: C_2  and  C_4
REMARK    2  A    between atoms: C_4  and  C_5
REMARK                            x       y       z     vdW  Elec       q    Type
REMARK                         _______ _______ _______ _____ _____    ______ ____
ROOT
ATOM      1  C   UNL     1     -12.204  15.154  70.741  0.00  0.00    -0.021 A 
ATOM      2  C   UNL     1     -12.853  14.020  71.193  0.00  0.00    -0.004 A 
ATOM      3  C   UNL     1     -13.380  13.974  72.476  0.00  0.00    -0.000 A 
ATOM      4  C   UNL     1     -13.081  15.021  73.311  0.00  0.00    -0.000 A 
ATOM      5  C   UNL     1     -12.204  16.017  72.975  0.00  0.00    -0.000 A 
ATOM      6  C   UNL     1     -11.801  16.093  71.662  0.00  0.00    -0.004 A 
ENDROOT
BRANCH   1   7
ATOM      7  C   UNL     1     -12.017  15.329  69.286  0.00  0.00    +0.045 C 
BRANCH   7   9
ATOM      8  C   UNL     1     -10.175  13.991  68.553  0.00  0.00    +0.021 C 
ATOM      9  C   UNL     1     -11.822  13.771  68.717  0.00  0.00    +0.096 C 
ATOM     10  N   UNL     1     -12.074  14.248  67.211  0.00  0.00    -0.133 NA
ENDBRANCH   7   9
ENDBRANCH   1   7
TORSDOF 2
ENDMDL
MODEL 7
REMARK VINA RESULT:      -4.2      2.810      4.434
REMARK  Name = 
REMARK  2 active torsions:
REMARK  status: ('A' for Active; 'I' for Inactive)
REMARK    1  A    between atoms: C_2  and  C_4
REMARK    2  A    between atoms: C_4  and  C_5
REMARK                            x       y       z     vdW  Elec       q    Type
REMARK                         _______ _______ _______ _____ _____    ______ ____
ROOT
ATOM      1  C   UNL     1     -12.432  15.377  70.715  0.00  0.00    -0.021 A 
ATOM      2  C   UNL     1     -11.900  16.188  71.700  0.00  0.00    -0.004 A 
ATOM      3  C   UNL     1     -12.062  15.868  73.040  0.00  0.00    -0.000 A 
ATOM      4  C   UNL     1     -12.903  14.824  73.336  0.00  0.00    -0.000 A 
ATOM      5  C   UNL     1     -13.664  14.189  72.391  0.00  0.00    -0.000 A 
ATOM      6  C   UNL     1     -13.386  14.450  71.069  0.00  0.00    -0.004 A 
ENDROOT
BRANCH   1   7
ATOM      7  C   UNL     1     -11.918  15.508  69.337  0.00  0.00    +0.045 C 
BRANCH   7   9
ATOM      8  C   UNL     1     -10.213  13.976  68.655  0.00  0.00    +0.021 C 
ATOM      9  C   UNL     1     -11.878  13.936  68.773  0.00  0.00    +0.096 C 
ATOM     10  N   UNL     1     -12.033  14.434  67.260  0.00  0.00    -0.133 NA
ENDBRANCH   7   9
ENDBRANCH   1   7
TORSDOF 2
ENDMDL
MODEL 8
REMARK VINA RESULT:      -3.9      2.664      4.472
REMARK  Name = 
REMARK  2 active torsions:
REMARK  status: ('A' for Active; 'I' for Inactive)
REMARK    1  A    between atoms: C_2  and  C_4
REMARK    2  A    between atoms: C_4  and  C_5
REMARK                            x       y       z     vdW  Elec       q    Type
REMARK                         _______ _______ _______ _____ _____    ______ ____
ROOT
ATOM      1  C   UNL     1     -12.669  11.609  70.972  0.00  0.00    -0.021 A 
ATOM      2  C   UNL     1     -13.311  12.136  72.077  0.00  0.00    -0.004 A 
ATOM      3  C   UNL     1     -13.571  13.497  72.158  0.00  0.00    -0.000 A 
ATOM      4  C   UNL     1     -13.018  14.297  71.189  0.00  0.00    -0.000 A 
ATOM      5  C   UNL     1     -12.140  13.830  70.247  0.00  0.00    -0.000 A 
ATOM      6  C   UNL     1     -12.006  12.466  70.124  0.00  0.00    -0.004 A 
ENDROOT
BRANCH   1   7
ATOM      7  C   UNL     1     -12.764  10.155  70.726  0.00  0.00    +0.045 C 
BRANCH   7   9
ATOM      8  C   UNL     1     -12.015   8.442  72.216  0.00  0.00    +0.021 C 
ATOM      9  C   UNL     1     -13.278   9.534  72.188  0.00  0.00    +0.096 C 
ATOM     10  N   UNL     1     -14.224   8.476  71.449  0.00  0.00    -0.133 NA
ENDBRANCH   7   9
ENDBRANCH   1   7
TORSDOF 2
ENDMDL
MODEL 9
REMARK VINA RESULT:      -3.9      4.065      5.650
REMARK  Name = 
REMARK  2 active torsions:
REMARK  status: ('A' for Active; 'I' for Inactive)
REMARK    1  A    between atoms: C_2  and  C_4
REMARK    2  A    between atoms: C_4  and  C_5
REMARK                            x       y       z     vdW  Elec       q    Type
REMARK                         _______ _______ _______ _____ _____    ______ ____
ROOT
ATOM      1  C   UNL     1     -11.790  12.999  67.158  0.00  0.00    -0.021 A 
ATOM      2  C   UNL     1     -11.295  11.823  66.626  0.00  0.00    -0.004 A 
ATOM      3  C   UNL     1     -11.162  10.692  67.419  0.00  0.00    -0.000 A 
ATOM      4  C   UNL     1     -11.378  10.845  68.766  0.00  0.00    -0.000 A 
ATOM      5  C   UNL     1     -11.588  12.064  69.354  0.00  0.00    -0.000 A 
ATOM      6  C   UNL     1     -11.834  13.135  68.527  0.00  0.00    -0.004 A 
ENDROOT
BRANCH   1   7
ATOM      7  C   UNL     1     -12.292  14.037  66.235  0.00  0.00    +0.045 C 
BRANCH   7   9
ATOM      8  C   UNL     1     -10.635  15.307  65.069  0.00  0.00    +0.021 C 
ATOM      9  C   UNL     1     -11.375  13.825  64.856  0.00  0.00    +0.096 C 
ATOM     10  N   UNL     1     -12.516  14.484  63.949  0.00  0.00    -0.133 NA
ENDBRANCH   7   9
ENDBRANCH   1   7
TORSDOF 2
ENDMDL
