MODEL 1
REMARK VINA RESULT:      -4.6      0.000      0.000
REMARK  Name = 
REMARK  3 active torsions:
REMARK  status: ('A' for Active; 'I' for Inactive)
REMARK    1  A    between atoms: N_2  and  C_3
REMARK    2  A    between atoms: C_3  and  C_5
REMARK    3  A    between atoms: C_5  and  C_6
REMARK                            x       y       z     vdW  Elec       q    Type
REMARK                         _______ _______ _______ _____ _____    ______ ____
ROOT
ATOM      1  C   UNL     1     -12.438  12.350  70.918  0.00  0.00    -0.021 A 
ATOM      2  C   UNL     1     -11.806  11.694  69.899  0.00  0.00    -0.004 A 
ATOM      3  C   UNL     1     -11.375  10.407  70.169  0.00  0.00    -0.000 A 
ATOM      4  C   UNL     1     -12.115   9.637  71.043  0.00  0.00    -0.000 A 
ATOM      5  C   UNL     1     -13.107  10.208  71.801  0.00  0.00    -0.000 A 
ATOM      6  C   UNL     1     -13.153  11.595  71.822  0.00  0.00    -0.004 A 
ENDROOT
BRANCH   1   7
ATOM      7  C   UNL     1     -12.670  13.805  70.980  0.00  0.00    +0.044 C 
BRANCH   7   8
ATOM      8  C   UNL     1     -13.481  14.036  72.421  0.00  0.00    +0.077 C 
ATOM      9  C   UNL     1     -14.654  14.968  71.681  0.00  0.00    +0.019 C 
BRANCH   8  11
ATOM     10  C   UNL     1     -12.442  15.331  74.077  0.00  0.00    +0.107 C 
ATOM     11  N   UNL     1     -12.613  15.339  72.751  0.00  0.00    -0.218 NA
ENDBRANCH   8  11
ENDBRANCH   7   8
ENDBRANCH   1   7
TORSDOF 3
ENDMDL
MODEL 2
REMARK VINA RESULT:      -4.4      3.190      5.128
REMARK  Name = 
REMARK  3 active torsions:
REMARK  status: ('A' for Active; 'I' for Inactive)
REMARK    1  A    between atoms: N_2  and  C_3
REMARK    2  A    between atoms: C_3  and  C_5
REMARK    3  A    between atoms: C_5  and  C_6
REMARK                            x       y       z     vdW  Elec       q    Type
REMARK                         _______ _______ _______ _____ _____    ______ ____
ROOT
ATOM      1  C   UNL     1     -12.449  15.314  70.740  0.00  0.00    -0.021 A 
ATOM      2  C   UNL     1     -13.571  14.662  71.171  0.00  0.00    -0.004 A 
ATOM      3  C   UNL     1     -13.599  14.306  72.508  0.00  0.00    -0.000 A 
ATOM      4  C   UNL     1     -12.963  15.125  73.419  0.00  0.00    -0.000 A 
ATOM      5  C   UNL     1     -12.129  16.126  72.987  0.00  0.00    -0.000 A 
ATOM      6  C   UNL     1     -11.780  16.109  71.644  0.00  0.00    -0.004 A 
ENDROOT
BRANCH   1   7
ATOM      7  C   UNL     1     -12.052  15.482  69.329  0.00  0.00    +0.044 C 
BRANCH   7   8
ATOM      8  C   UNL     1     -11.839  13.923  68.770  0.00  0.00    +0.077 C 
ATOM      9  C   UNL     1     -10.192  14.144  68.602  0.00  0.00    +0.019 C 
BRANCH   8  11
ATOM     10  C   UNL     1     -11.838  13.307  66.507  0.00  0.00    +0.107 C 
ATOM     11  N   UNL     1     -12.084  14.386  67.257  0.00  0.00    -0.218 NA
ENDBRANCH   8  11
ENDBRANCH   7   8
ENDBRANCH   1   7
TORSDOF 3
ENDMDL
MODEL 3
REMARK VINA RESULT:      -4.4      1.876      2.932
REMARK  Name = 
REMARK  3 active torsions:
REMARK  status: ('A' for Active; 'I' for Inactive)
REMARK    1  A    between atoms: N_2  and  C_3
REMARK    2  A    between atoms: C_3  and  C_5
REMARK    3  A    between atoms: C_5  and  C_6
REMARK                            x       y       z     vdW  Elec       q    Type
REMARK                         _______ _______ _______ _____ _____    ______ ____
ROOT
ATOM      1  C   UNL     1     -12.145  13.206  69.902  0.00  0.00    -0.021 A 
ATOM      2  C   UNL     1     -11.746  11.902  69.810  0.00  0.00    -0.004 A 
ATOM      3  C   UNL     1     -11.805  11.328  68.552  0.00  0.00    -0.000 A 
ATOM      4  C   UNL     1     -11.576  12.131  67.453  0.00  0.00    -0.000 A 
ATOM      5  C   UNL     1     -11.529  13.496  67.589  0.00  0.00    -0.000 A 
ATOM      6  C   UNL     1     -11.958  14.015  68.802  0.00  0.00    -0.004 A 
ENDROOT
BRANCH   1   7
ATOM      7  C   UNL     1     -12.489  13.905  71.155  0.00  0.00    +0.044 C 
BRANCH   7   8
ATOM      8  C   UNL     1     -12.731  15.491  70.692  0.00  0.00    +0.077 C 
ATOM      9  C   UNL     1     -11.909  16.069  72.028  0.00  0.00    +0.019 C 
BRANCH   8  11
ATOM     10  C   UNL     1     -13.793  15.688  72.774  0.00  0.00    +0.107 C 
ATOM     11  N   UNL     1     -14.120  15.555  71.485  0.00  0.00    -0.218 NA
ENDBRANCH   8  11
ENDBRANCH   7   8
ENDBRANCH   1   7
TORSDOF 3
ENDMDL
MODEL 4
REMARK VINA RESULT:      -4.3      3.100      5.010
REMARK  Name = 
REMARK  3 active torsions:
REMARK  status: ('A' for Active; 'I' for Inactive)
REMARK    1  A    between atoms: N_2  and  C_3
REMARK    2  A    between atoms: C_3  and  C_5
REMARK    3  A    between atoms: C_5  and  C_6
REMARK                            x       y       z     vdW  Elec       q    Type
REMARK                         _______ _______ _______ _____ _____    ______ ____
ROOT
ATOM      1  C   UNL     1     -12.347  15.409  70.725  0.00  0.00    -0.021 A 
ATOM      2  C   UNL     1     -11.713  16.103  71.718  0.00  0.00    -0.004 A 
ATOM      3  C   UNL     1     -12.323  16.097  72.960  0.00  0.00    -0.000 A 
ATOM      4  C   UNL     1     -13.032  14.974  73.337  0.00  0.00    -0.000 A 
ATOM      5  C   UNL     1     -13.322  13.996  72.418  0.00  0.00    -0.000 A 
ATOM      6  C   UNL     1     -13.088  14.306  71.086  0.00  0.00    -0.004 A 
ENDROOT
BRANCH   1   7
ATOM      7  C   UNL     1     -12.079  15.553  69.282  0.00  0.00    +0.044 C 
BRANCH   7   8
ATOM      8  C   UNL     1     -11.852  13.988  68.745  0.00  0.00    +0.077 C 
ATOM      9  C   UNL     1     -10.195  14.192  68.664  0.00  0.00    +0.019 C 
BRANCH   8  11
ATOM     10  C   UNL     1     -11.882  13.327  66.495  0.00  0.00    +0.107 C 
ATOM     11  N   UNL     1     -12.010  14.443  67.218  0.00  0.00    -0.218 NA
ENDBRANCH   8  11
ENDBRANCH   7   8
ENDBRANCH   1   7
TORSDOF 3
ENDMDL
MODEL 5
REMARK VINA RESULT:      -4.3      3.787      5.120
REMARK  Name = 
REMARK  3 active torsions:
REMARK  status: ('A' for Active; 'I' for Inactive)
REMARK    1  A    between atoms: N_2  and  C_3
REMARK    2  A    between atoms: C_3  and  C_5
REMARK    3  A    between atoms: C_5  and  C_6
REMARK                            x       y       z     vdW  Elec       q    Type
REMARK                         _______ _______ _______ _____ _____    ______ ____
ROOT
ATOM      1  C   UNL     1     -11.843  15.632  71.112  0.00  0.00    -0.021 A 
ATOM      2  C   UNL     1     -11.656  15.604  72.466  0.00  0.00    -0.004 A 
ATOM      3  C   UNL     1     -12.754  15.924  73.246  0.00  0.00    -0.000 A 
ATOM      4  C   UNL     1     -14.009  15.587  72.781  0.00  0.00    -0.000 A 
ATOM      5  C   UNL     1     -14.179  15.167  71.485  0.00  0.00    -0.000 A 
ATOM      6  C   UNL     1     -13.098  15.333  70.631  0.00  0.00    -0.004 A 
ENDROOT
BRANCH   1   7
ATOM      7  C   UNL     1     -10.766  15.665  70.105  0.00  0.00    +0.044 C 
BRANCH   7   8
ATOM      8  C   UNL     1     -11.566  15.817  68.647  0.00  0.00    +0.077 C 
ATOM      9  C   UNL     1     -10.305  15.106  67.812  0.00  0.00    +0.019 C 
BRANCH   8  11
ATOM     10  C   UNL     1      -9.621  17.119  68.523  0.00  0.00    +0.107 C 
ATOM     11  N   UNL     1     -10.943  17.271  68.406  0.00  0.00    -0.218 NA
ENDBRANCH   8  11
ENDBRANCH   7   8
ENDBRANCH   1   7
TORSDOF 3
ENDMDL
MODEL 6
REMARK VINA RESULT:      -4.2      4.492      6.420
REMARK  Name = 
REMARK  3 active torsions:
REMARK  status: ('A' for Active; 'I' for Inactive)
REMARK    1  A    between atoms: N_2  and  C_3
REMARK    2  A    between atoms: C_3  and  C_5
REMARK    3  A    between atoms: C_5  and  C_6
REMARK                            x       y       z     vdW  Elec       q    Type
REMARK                         _______ _______ _______ _____ _____    ______ ____
ROOT
ATOM      1  C   UNL     1     -11.846  14.307  67.503  0.00  0.00    -0.021 A 
ATOM      2  C   UNL     1     -11.548  15.465  68.166  0.00  0.00    -0.004 A 
ATOM      3  C   UNL     1     -11.930  15.528  69.495  0.00  0.00    -0.000 A 
ATOM      4  C   UNL     1     -11.924  14.364  70.236  0.00  0.00    -0.000 A 
ATOM      5  C   UNL     1     -11.775  13.148  69.616  0.00  0.00    -0.000 A 
ATOM      6  C   UNL     1     -11.879  13.139  68.232  0.00  0.00    -0.004 A 
ENDROOT
BRANCH   1   7
ATOM      7  C   UNL     1     -11.848  14.143  66.037  0.00  0.00    +0.044 C 
BRANCH   7   8
ATOM      8  C   UNL     1     -11.781  12.491  65.805  0.00  0.00    +0.077 C 
ATOM      9  C   UNL     1     -10.565  12.639  64.668  0.00  0.00    +0.019 C 
BRANCH   8  11
ATOM     10  C   UNL     1     -12.228  12.587  63.505  0.00  0.00    +0.107 C 
ATOM     11  N   UNL     1     -12.898  12.563  64.660  0.00  0.00    -0.218 NA
ENDBRANCH   8  11
ENDBRANCH   7   8
ENDBRANCH   1   7
TORSDOF 3
ENDMDL
MODEL 7
REMARK VINA RESULT:      -4.0      5.474      7.446
REMARK  Name = 
REMARK  3 active torsions:
REMARK  status: ('A' for Active; 'I' for Inactive)
REMARK    1  A    between atoms: N_2  and  C_3
REMARK    2  A    between atoms: C_3  and  C_5
REMARK    3  A    between atoms: C_5  and  C_6
REMARK                            x       y       z     vdW  Elec       q    Type
REMARK                         _______ _______ _______ _____ _____    ______ ____
ROOT
ATOM      1  C   UNL     1     -11.131  14.968  66.058  0.00  0.00    -0.021 A 
ATOM      2  C   UNL     1     -10.172  15.943  66.051  0.00  0.00    -0.004 A 
ATOM      3  C   UNL     1     -10.294  16.932  67.011  0.00  0.00    -0.000 A 
ATOM      4  C   UNL     1     -10.835  16.596  68.235  0.00  0.00    -0.000 A 
ATOM      5  C   UNL     1     -11.450  15.381  68.411  0.00  0.00    -0.000 A 
ATOM      6  C   UNL     1     -11.708  14.643  67.265  0.00  0.00    -0.004 A 
ENDROOT
BRANCH   1   7
ATOM      7  C   UNL     1     -11.399  14.031  64.950  0.00  0.00    +0.044 C 
BRANCH   7   8
ATOM      8  C   UNL     1     -12.002  12.666  65.699  0.00  0.00    +0.077 C 
ATOM      9  C   UNL     1     -10.897  11.680  64.925  0.00  0.00    +0.019 C 
BRANCH   8  11
ATOM     10  C   UNL     1     -12.349  12.131  63.443  0.00  0.00    +0.107 C 
ATOM     11  N   UNL     1     -13.067  12.440  64.526  0.00  0.00    -0.218 NA
ENDBRANCH   8  11
ENDBRANCH   7   8
ENDBRANCH   1   7
TORSDOF 3
ENDMDL
MODEL 8
REMARK VINA RESULT:      -4.0      5.674      7.491
REMARK  Name = 
REMARK  3 active torsions:
REMARK  status: ('A' for Active; 'I' for Inactive)
REMARK    1  A    between atoms: N_2  and  C_3
REMARK    2  A    between atoms: C_3  and  C_5
REMARK    3  A    between atoms: C_5  and  C_6
REMARK                            x       y       z     vdW  Elec       q    Type
REMARK                         _______ _______ _______ _____ _____    ______ ____
ROOT
ATOM      1  C   UNL     1     -10.420  17.733  67.429  0.00  0.00    -0.021 A 
ATOM      2  C   UNL     1     -10.381  18.362  66.215  0.00  0.00    -0.004 A 
ATOM      3  C   UNL     1     -10.406  19.746  66.238  0.00  0.00    -0.000 A 
ATOM      4  C   UNL     1      -9.805  20.394  67.298  0.00  0.00    -0.000 A 
ATOM      5  C   UNL     1      -9.409  19.690  68.408  0.00  0.00    -0.000 A 
ATOM      6  C   UNL     1      -9.857  18.381  68.506  0.00  0.00    -0.004 A 
ENDROOT
BRANCH   1   7
ATOM      7  C   UNL     1     -10.743  16.309  67.639  0.00  0.00    +0.044 C 
BRANCH   7   8
ATOM      8  C   UNL     1     -10.588  16.088  69.287  0.00  0.00    +0.077 C 
ATOM      9  C   UNL     1     -10.489  14.429  69.116  0.00  0.00    +0.019 C 
BRANCH   8  11
ATOM     10  C   UNL     1     -12.376  15.718  70.759  0.00  0.00    +0.107 C 
ATOM     11  N   UNL     1     -12.176  16.003  69.469  0.00  0.00    -0.218 NA
ENDBRANCH   8  11
ENDBRANCH   7   8
ENDBRANCH   1   7
TORSDOF 3
ENDMDL
MODEL 9
REMARK VINA RESULT:      -4.0      3.368      4.438
REMARK  Name = 
REMARK  3 active torsions:
REMARK  status: ('A' for Active; 'I' for Inactive)
REMARK    1  A    between atoms: N_2  and  C_3
REMARK    2  A    between atoms: C_3  and  C_5
REMARK    3  A    between atoms: C_5  and  C_6
REMARK                            x       y       z     vdW  Elec       q    Type
REMARK                         _______ _______ _______ _____ _____    ______ ____
ROOT
ATOM      1  C   UNL     1     -11.919  10.517  70.613  0.00  0.00    -0.021 A 
ATOM      2  C   UNL     1     -12.980  10.495  71.475  0.00  0.00    -0.004 A 
ATOM      3  C   UNL     1     -13.264   9.279  72.071  0.00  0.00    -0.000 A 
ATOM      4  C   UNL     1     -12.217   8.424  72.348  0.00  0.00    -0.000 A 
ATOM      5  C   UNL     1     -10.968   8.667  71.832  0.00  0.00    -0.000 A 
ATOM      6  C   UNL     1     -10.880   9.645  70.852  0.00  0.00    -0.004 A 
ENDROOT
BRANCH   1   7
ATOM      7  C   UNL     1     -11.646  11.578  69.626  0.00  0.00    +0.044 C 
BRANCH   7   8
ATOM      8  C   UNL     1     -11.038  10.765  68.300  0.00  0.00    +0.077 C 
ATOM      9  C   UNL     1      -9.768  11.840  68.149  0.00  0.00    +0.019 C 
BRANCH   8  11
ATOM     10  C   UNL     1     -11.732  12.911  67.655  0.00  0.00    +0.107 C 
ATOM     11  N   UNL     1     -11.933  11.638  67.300  0.00  0.00    -0.218 NA
ENDBRANCH   8  11
ENDBRANCH   7   8
ENDBRANCH   1   7
TORSDOF 3
ENDMDL
