MODEL 1
REMARK VINA RESULT:      -6.3      0.000      0.000
REMARK  Name = 
REMARK  1 active torsions:
REMARK  status: ('A' for Active; 'I' for Inactive)
REMARK    1  A    between atoms: O_2  and  C_3
REMARK                            x       y       z     vdW  Elec       q    Type
REMARK                         _______ _______ _______ _____ _____    ______ ____
ROOT
ATOM      1  C   UNL     1      -9.013  16.341  66.277  0.00  0.00    +0.237 C 
ATOM      2  C   UNL     1     -10.468  16.925  66.941  0.00  0.00    +0.059 C 
ATOM      3  C   UNL     1      -9.714  17.465  68.279  0.00  0.00    +0.005 C 
ATOM      4  C   UNL     1     -11.280  15.685  67.729  0.00  0.00    +0.038 C 
ATOM      5  C   UNL     1     -11.286  14.481  66.669  0.00  0.00    +0.178 C 
ATOM      6  C   UNL     1     -11.967  13.313  67.535  0.00  0.00    +0.033 C 
ATOM      7  C   UNL     1     -10.802  13.091  68.756  0.00  0.00    +0.003 C 
ATOM      8  C   UNL     1     -11.143  14.411  69.614  0.00  0.00    +0.000 C 
ATOM      9  C   UNL     1     -11.828  12.200  69.634  0.00  0.00    +0.000 C 
ATOM     10  C   UNL     1     -11.289  11.983  66.924  0.00  0.00    +0.008 C 
ATOM     11  C   UNL     1     -11.221  11.691  65.621  0.00  0.00    +0.059 C 
ATOM     12  C   UNL     1     -11.448  12.946  64.824  0.00  0.00    +0.221 C 
ATOM     13  O   UNL     1     -12.575  13.573  65.287  0.00  0.00    -0.197 OA
ATOM     14  C   UNL     1     -11.711  12.475  63.414  0.00  0.00    +0.064 C 
ATOM     15  O   UNL     1     -10.287  13.489  64.824  0.00  0.00    -0.306 OA
ATOM     16  C   UNL     1      -9.830  14.083  66.161  0.00  0.00    +0.268 C 
ATOM     17  O   UNL     1     -12.119  14.759  65.678  0.00  0.00    -0.218 OA
ATOM     18  C   UNL     1     -10.122  15.194  68.780  0.00  0.00    +0.003 C 
ATOM     19  O   UNL     1      -9.759  15.391  65.366  0.00  0.00    -0.304 OA
ENDROOT
BRANCH   1  21
ATOM     20  C   UNL     1      -7.342  15.351  67.220  0.00  0.00    +0.177 C 
ATOM     21  O   UNL     1      -8.579  15.345  67.331  0.00  0.00    -0.328 OA
ENDBRANCH   1  21
TORSDOF 1
ENDMDL
MODEL 2
REMARK VINA RESULT:      -6.2      1.250      4.333
REMARK  Name = 
REMARK  1 active torsions:
REMARK  status: ('A' for Active; 'I' for Inactive)
REMARK    1  A    between atoms: O_2  and  C_3
REMARK                            x       y       z     vdW  Elec       q    Type
REMARK                         _______ _______ _______ _____ _____    ______ ____
ROOT
ATOM      1  C   UNL     1     -10.707  13.581  65.119  0.00  0.00    +0.237 C 
ATOM      2  C   UNL     1      -9.832  12.778  66.338  0.00  0.00    +0.059 C 
ATOM      3  C   UNL     1     -11.045  11.723  66.599  0.00  0.00    +0.005 C 
ATOM      4  C   UNL     1     -10.022  13.573  67.803  0.00  0.00    +0.038 C 
ATOM      5  C   UNL     1      -9.725  15.112  67.458  0.00  0.00    +0.178 C 
ATOM      6  C   UNL     1     -10.040  15.809  68.869  0.00  0.00    +0.033 C 
ATOM      7  C   UNL     1     -11.706  15.495  69.024  0.00  0.00    +0.003 C 
ATOM      8  C   UNL     1     -11.588  13.937  69.418  0.00  0.00    +0.000 C 
ATOM      9  C   UNL     1     -11.689  15.937  70.580  0.00  0.00    +0.000 C 
ATOM     10  C   UNL     1     -10.561  17.271  68.428  0.00  0.00    +0.008 C 
ATOM     11  C   UNL     1      -9.926  18.084  67.577  0.00  0.00    +0.059 C 
ATOM     12  C   UNL     1      -8.938  17.281  66.777  0.00  0.00    +0.221 C 
ATOM     13  O   UNL     1      -8.182  16.521  67.631  0.00  0.00    -0.197 OA
ATOM     14  C   UNL     1      -8.037  18.301  66.125  0.00  0.00    +0.064 C 
ATOM     15  O   UNL     1      -9.670  16.784  65.849  0.00  0.00    -0.306 OA
ATOM     16  C   UNL     1     -10.641  15.681  66.286  0.00  0.00    +0.268 C 
ATOM     17  O   UNL     1      -8.432  15.279  67.228  0.00  0.00    -0.218 OA
ATOM     18  C   UNL     1     -11.656  13.574  67.931  0.00  0.00    +0.003 C 
ATOM     19  O   UNL     1      -9.866  14.829  65.277  0.00  0.00    -0.304 OA
ENDROOT
BRANCH   1  21
ATOM     20  C   UNL     1     -12.809  14.058  64.999  0.00  0.00    +0.177 C 
ATOM     21  O   UNL     1     -11.932  14.041  65.879  0.00  0.00    -0.328 OA
ENDBRANCH   1  21
TORSDOF 1
ENDMDL
MODEL 3
REMARK VINA RESULT:      -6.1      2.283      4.939
REMARK  Name = 
REMARK  1 active torsions:
REMARK  status: ('A' for Active; 'I' for Inactive)
REMARK    1  A    between atoms: O_2  and  C_3
REMARK                            x       y       z     vdW  Elec       q    Type
REMARK                         _______ _______ _______ _____ _____    ______ ____
ROOT
ATOM      1  C   UNL     1     -12.073  15.388  69.035  0.00  0.00    +0.237 C 
ATOM      2  C   UNL     1     -11.733  14.503  67.622  0.00  0.00    +0.059 C 
ATOM      3  C   UNL     1     -11.509  13.127  68.463  0.00  0.00    +0.005 C 
ATOM      4  C   UNL     1     -10.116  14.678  67.208  0.00  0.00    +0.038 C 
ATOM      5  C   UNL     1      -9.863  16.261  67.267  0.00  0.00    +0.178 C 
ATOM      6  C   UNL     1      -8.285  16.330  66.978  0.00  0.00    +0.033 C 
ATOM      7  C   UNL     1      -7.667  15.529  68.347  0.00  0.00    +0.003 C 
ATOM      8  C   UNL     1      -8.043  14.028  67.898  0.00  0.00    +0.000 C 
ATOM      9  C   UNL     1      -6.201  15.414  67.672  0.00  0.00    +0.000 C 
ATOM     10  C   UNL     1      -7.838  17.648  67.795  0.00  0.00    +0.008 C 
ATOM     11  C   UNL     1      -8.435  18.841  67.706  0.00  0.00    +0.059 C 
ATOM     12  C   UNL     1      -9.803  18.661  67.110  0.00  0.00    +0.221 C 
ATOM     13  O   UNL     1      -9.701  17.903  65.973  0.00  0.00    -0.197 OA
ATOM     14  C   UNL     1     -10.248  20.049  66.719  0.00  0.00    +0.064 C 
ATOM     15  O   UNL     1     -10.506  18.318  68.127  0.00  0.00    -0.306 OA
ATOM     16  C   UNL     1     -10.248  16.908  68.670  0.00  0.00    +0.268 C 
ATOM     17  O   UNL     1     -10.465  16.849  66.245  0.00  0.00    -0.218 OA
ATOM     18  C   UNL     1      -9.399  14.178  68.595  0.00  0.00    +0.003 C 
ATOM     19  O   UNL     1     -11.731  16.694  68.352  0.00  0.00    -0.304 OA
ENDROOT
BRANCH   1  21
ATOM     20  C   UNL     1     -11.174  15.338  70.997  0.00  0.00    +0.177 C 
ATOM     21  O   UNL     1     -10.793  15.205  69.822  0.00  0.00    -0.328 OA
ENDBRANCH   1  21
TORSDOF 1
ENDMDL
MODEL 4
REMARK VINA RESULT:      -6.0      1.976      4.042
REMARK  Name = 
REMARK  1 active torsions:
REMARK  status: ('A' for Active; 'I' for Inactive)
REMARK    1  A    between atoms: O_2  and  C_3
REMARK                            x       y       z     vdW  Elec       q    Type
REMARK                         _______ _______ _______ _____ _____    ______ ____
ROOT
ATOM      1  C   UNL     1     -12.403  12.826  64.790  0.00  0.00    +0.237 C 
ATOM      2  C   UNL     1     -12.588  14.299  65.623  0.00  0.00    +0.059 C 
ATOM      3  C   UNL     1     -12.034  15.157  64.355  0.00  0.00    +0.005 C 
ATOM      4  C   UNL     1     -11.245  14.589  66.586  0.00  0.00    +0.038 C 
ATOM      5  C   UNL     1     -11.028  13.216  67.385  0.00  0.00    +0.178 C 
ATOM      6  C   UNL     1      -9.672  13.535  68.183  0.00  0.00    +0.033 C 
ATOM      7  C   UNL     1      -8.571  13.712  66.897  0.00  0.00    +0.003 C 
ATOM      8  C   UNL     1      -9.048  15.172  66.412  0.00  0.00    +0.000 C 
ATOM      9  C   UNL     1      -7.457  14.352  67.881  0.00  0.00    +0.000 C 
ATOM     10  C   UNL     1      -8.987  12.080  68.306  0.00  0.00    +0.008 C 
ATOM     11  C   UNL     1      -9.604  10.981  68.751  0.00  0.00    +0.059 C 
ATOM     12  C   UNL     1     -11.091  11.193  68.686  0.00  0.00    +0.221 C 
ATOM     13  O   UNL     1     -11.399  12.390  69.277  0.00  0.00    -0.197 OA
ATOM     14  C   UNL     1     -11.684  10.085  69.522  0.00  0.00    +0.064 C 
ATOM     15  O   UNL     1     -11.358  10.920  67.463  0.00  0.00    -0.306 OA
ATOM     16  C   UNL     1     -10.882  11.949  66.431  0.00  0.00    +0.268 C 
ATOM     17  O   UNL     1     -11.981  13.069  68.293  0.00  0.00    -0.218 OA
ATOM     18  C   UNL     1     -10.053  14.509  65.463  0.00  0.00    +0.003 C 
ATOM     19  O   UNL     1     -12.371  12.047  66.087  0.00  0.00    -0.304 OA
ENDROOT
BRANCH   1  21
ATOM     20  C   UNL     1     -10.835  12.091  63.501  0.00  0.00    +0.177 C 
ATOM     21  O   UNL     1     -10.919  12.831  64.496  0.00  0.00    -0.328 OA
ENDBRANCH   1  21
TORSDOF 1
ENDMDL
MODEL 5
REMARK VINA RESULT:      -5.9      2.392      4.414
REMARK  Name = 
REMARK  1 active torsions:
REMARK  status: ('A' for Active; 'I' for Inactive)
REMARK    1  A    between atoms: O_2  and  C_3
REMARK                            x       y       z     vdW  Elec       q    Type
REMARK                         _______ _______ _______ _____ _____    ______ ____
ROOT
ATOM      1  C   UNL     1      -9.006  18.530  67.661  0.00  0.00    +0.237 C 
ATOM      2  C   UNL     1      -7.816  17.312  67.641  0.00  0.00    +0.059 C 
ATOM      3  C   UNL     1      -7.478  17.581  66.072  0.00  0.00    +0.005 C 
ATOM      4  C   UNL     1      -8.528  15.816  67.376  0.00  0.00    +0.038 C 
ATOM      5  C   UNL     1      -9.740  15.764  68.426  0.00  0.00    +0.178 C 
ATOM      6  C   UNL     1     -10.430  14.369  68.029  0.00  0.00    +0.033 C 
ATOM      7  C   UNL     1     -10.963  14.708  66.448  0.00  0.00    +0.003 C 
ATOM      8  C   UNL     1      -9.529  14.612  65.719  0.00  0.00    +0.000 C 
ATOM      9  C   UNL     1     -11.262  13.142  66.167  0.00  0.00    +0.000 C 
ATOM     10  C   UNL     1     -11.980  14.631  68.392  0.00  0.00    +0.008 C 
ATOM     11  C   UNL     1     -12.420  15.114  69.559  0.00  0.00    +0.059 C 
ATOM     12  C   UNL     1     -11.278  15.779  70.276  0.00  0.00    +0.221 C 
ATOM     13  O   UNL     1     -10.203  14.929  70.293  0.00  0.00    -0.197 OA
ATOM     14  C   UNL     1     -11.758  15.966  71.694  0.00  0.00    +0.064 C 
ATOM     15  O   UNL     1     -11.250  16.942  69.736  0.00  0.00    -0.306 OA
ATOM     16  C   UNL     1     -10.743  16.993  68.290  0.00  0.00    +0.268 C 
ATOM     17  O   UNL     1      -9.264  15.620  69.653  0.00  0.00    -0.218 OA
ATOM     18  C   UNL     1      -9.321  16.110  65.972  0.00  0.00    +0.003 C 
ATOM     19  O   UNL     1      -9.673  17.920  68.874  0.00  0.00    -0.304 OA
ENDROOT
BRANCH   1  21
ATOM     20  C   UNL     1     -10.455  19.082  66.159  0.00  0.00    +0.177 C 
ATOM     21  O   UNL     1      -9.967  18.030  66.603  0.00  0.00    -0.328 OA
ENDBRANCH   1  21
TORSDOF 1
ENDMDL
MODEL 6
REMARK VINA RESULT:      -5.8      1.329      4.263
REMARK  Name = 
REMARK  1 active torsions:
REMARK  status: ('A' for Active; 'I' for Inactive)
REMARK    1  A    between atoms: O_2  and  C_3
REMARK                            x       y       z     vdW  Elec       q    Type
REMARK                         _______ _______ _______ _____ _____    ______ ____
ROOT
ATOM      1  C   UNL     1     -10.598  12.655  64.296  0.00  0.00    +0.237 C 
ATOM      2  C   UNL     1      -9.343  11.883  65.147  0.00  0.00    +0.059 C 
ATOM      3  C   UNL     1      -9.948  10.407  64.825  0.00  0.00    +0.005 C 
ATOM      4  C   UNL     1      -9.707  11.829  66.785  0.00  0.00    +0.038 C 
ATOM      5  C   UNL     1     -10.140  13.331  67.143  0.00  0.00    +0.178 C 
ATOM      6  C   UNL     1     -10.579  13.166  68.679  0.00  0.00    +0.033 C 
ATOM      7  C   UNL     1     -11.920  12.130  68.525  0.00  0.00    +0.003 C 
ATOM      8  C   UNL     1     -11.102  10.770  68.243  0.00  0.00    +0.000 C 
ATOM      9  C   UNL     1     -11.937  11.843  70.117  0.00  0.00    +0.000 C 
ATOM     10  C   UNL     1     -11.722  14.293  68.838  0.00  0.00    +0.008 C 
ATOM     11  C   UNL     1     -11.589  15.572  68.471  0.00  0.00    +0.059 C 
ATOM     12  C   UNL     1     -10.439  15.690  67.510  0.00  0.00    +0.221 C 
ATOM     13  O   UNL     1      -9.346  15.054  68.038  0.00  0.00    -0.197 OA
ATOM     14  C   UNL     1     -10.138  17.167  67.434  0.00  0.00    +0.064 C 
ATOM     15  O   UNL     1     -10.976  15.362  66.393  0.00  0.00    -0.306 OA
ATOM     16  C   UNL     1     -11.326  13.878  66.232  0.00  0.00    +0.268 C 
ATOM     17  O   UNL     1      -9.076  14.119  67.131  0.00  0.00    -0.218 OA
ATOM     18  C   UNL     1     -11.158  11.069  66.741  0.00  0.00    +0.003 C 
ATOM     19  O   UNL     1     -10.367  13.951  65.041  0.00  0.00    -0.304 OA
ENDROOT
BRANCH   1  21
ATOM     20  C   UNL     1     -12.716  12.246  64.200  0.00  0.00    +0.177 C 
ATOM     21  O   UNL     1     -11.817  12.176  65.055  0.00  0.00    -0.328 OA
ENDBRANCH   1  21
TORSDOF 1
ENDMDL
MODEL 7
REMARK VINA RESULT:      -5.8      1.606      2.294
REMARK  Name = 
REMARK  1 active torsions:
REMARK  status: ('A' for Active; 'I' for Inactive)
REMARK    1  A    between atoms: O_2  and  C_3
REMARK                            x       y       z     vdW  Elec       q    Type
REMARK                         _______ _______ _______ _____ _____    ______ ____
ROOT
ATOM      1  C   UNL     1     -10.527  15.836  66.862  0.00  0.00    +0.237 C 
ATOM      2  C   UNL     1     -11.076  14.944  68.204  0.00  0.00    +0.059 C 
ATOM      3  C   UNL     1      -9.883  15.518  69.151  0.00  0.00    +0.005 C 
ATOM      4  C   UNL     1     -10.467  13.381  68.145  0.00  0.00    +0.038 C 
ATOM      5  C   UNL     1     -10.781  12.892  66.650  0.00  0.00    +0.178 C 
ATOM      6  C   UNL     1     -10.071  11.452  66.643  0.00  0.00    +0.033 C 
ATOM      7  C   UNL     1      -8.439  11.892  66.847  0.00  0.00    +0.003 C 
ATOM      8  C   UNL     1      -8.512  12.243  68.418  0.00  0.00    +0.000 C 
ATOM      9  C   UNL     1      -8.020  10.361  67.161  0.00  0.00    +0.000 C 
ATOM     10  C   UNL     1      -9.626  11.289  65.101  0.00  0.00    +0.008 C 
ATOM     11  C   UNL     1     -10.432  11.475  64.051  0.00  0.00    +0.059 C 
ATOM     12  C   UNL     1     -11.631  12.271  64.487  0.00  0.00    +0.221 C 
ATOM     13  O   UNL     1     -12.161  11.700  65.614  0.00  0.00    -0.197 OA
ATOM     14  C   UNL     1     -12.630  12.125  63.365  0.00  0.00    +0.064 C 
ATOM     15  O   UNL     1     -11.196  13.476  64.443  0.00  0.00    -0.306 OA
ATOM     16  C   UNL     1     -10.190  13.861  65.534  0.00  0.00    +0.268 C 
ATOM     17  O   UNL     1     -12.081  12.678  66.512  0.00  0.00    -0.218 OA
ATOM     18  C   UNL     1      -8.860  13.692  68.060  0.00  0.00    +0.003 C 
ATOM     19  O   UNL     1     -11.242  14.912  65.900  0.00  0.00    -0.304 OA
ENDROOT
BRANCH   1  21
ATOM     20  C   UNL     1      -8.522  16.248  66.175  0.00  0.00    +0.177 C 
ATOM     21  O   UNL     1      -9.125  15.292  66.692  0.00  0.00    -0.328 OA
ENDBRANCH   1  21
TORSDOF 1
ENDMDL
MODEL 8
REMARK VINA RESULT:      -5.7      1.865      4.020
REMARK  Name = 
REMARK  1 active torsions:
REMARK  status: ('A' for Active; 'I' for Inactive)
REMARK    1  A    between atoms: O_2  and  C_3
REMARK                            x       y       z     vdW  Elec       q    Type
REMARK                         _______ _______ _______ _____ _____    ______ ____
ROOT
ATOM      1  C   UNL     1     -10.694  10.789  68.137  0.00  0.00    +0.237 C 
ATOM      2  C   UNL     1      -9.117  10.854  67.502  0.00  0.00    +0.059 C 
ATOM      3  C   UNL     1      -8.481  11.226  68.954  0.00  0.00    +0.005 C 
ATOM      4  C   UNL     1      -8.828  12.365  66.832  0.00  0.00    +0.038 C 
ATOM      5  C   UNL     1     -10.102  12.631  65.895  0.00  0.00    +0.178 C 
ATOM      6  C   UNL     1      -9.807  14.128  65.392  0.00  0.00    +0.033 C 
ATOM      7  C   UNL     1      -9.896  14.987  66.858  0.00  0.00    +0.003 C 
ATOM      8  C   UNL     1      -8.472  14.528  67.456  0.00  0.00    +0.000 C 
ATOM      9  C   UNL     1      -9.238  16.301  66.178  0.00  0.00    +0.000 C 
ATOM     10  C   UNL     1     -11.291  14.725  65.183  0.00  0.00    +0.008 C 
ATOM     11  C   UNL     1     -12.264  14.127  64.488  0.00  0.00    +0.059 C 
ATOM     12  C   UNL     1     -11.929  12.670  64.329  0.00  0.00    +0.221 C 
ATOM     13  O   UNL     1     -10.643  12.554  63.870  0.00  0.00    -0.197 OA
ATOM     14  C   UNL     1     -12.863  12.165  63.257  0.00  0.00    +0.064 C 
ATOM     15  O   UNL     1     -12.331  12.170  65.439  0.00  0.00    -0.306 OA
ATOM     16  C   UNL     1     -11.488  12.519  66.671  0.00  0.00    +0.268 C 
ATOM     17  O   UNL     1     -10.045  11.850  64.827  0.00  0.00    -0.218 OA
ATOM     18  C   UNL     1      -9.158  13.327  68.118  0.00  0.00    +0.003 C 
ATOM     19  O   UNL     1     -11.302  11.002  66.768  0.00  0.00    -0.304 OA
ENDROOT
BRANCH   1  21
ATOM     20  C   UNL     1     -11.700  12.040  69.581  0.00  0.00    +0.177 C 
ATOM     21  O   UNL     1     -10.861  12.193  68.677  0.00  0.00    -0.328 OA
ENDBRANCH   1  21
TORSDOF 1
ENDMDL
MODEL 9
REMARK VINA RESULT:      -5.7      2.023      2.844
REMARK  Name = 
REMARK  1 active torsions:
REMARK  status: ('A' for Active; 'I' for Inactive)
REMARK    1  A    between atoms: O_2  and  C_3
REMARK                            x       y       z     vdW  Elec       q    Type
REMARK                         _______ _______ _______ _____ _____    ______ ____
ROOT
ATOM      1  C   UNL     1      -9.102  18.845  66.470  0.00  0.00    +0.237 C 
ATOM      2  C   UNL     1      -9.691  18.622  68.051  0.00  0.00    +0.059 C 
ATOM      3  C   UNL     1      -8.348  19.265  68.709  0.00  0.00    +0.005 C 
ATOM      4  C   UNL     1      -9.368  17.060  68.572  0.00  0.00    +0.038 C 
ATOM      5  C   UNL     1      -9.875  16.130  67.367  0.00  0.00    +0.178 C 
ATOM      6  C   UNL     1      -9.426  14.679  67.889  0.00  0.00    +0.033 C 
ATOM      7  C   UNL     1      -7.733  14.847  67.902  0.00  0.00    +0.003 C 
ATOM      8  C   UNL     1      -7.623  15.751  69.232  0.00  0.00    +0.000 C 
ATOM      9  C   UNL     1      -7.560  13.485  68.758  0.00  0.00    +0.000 C 
ATOM     10  C   UNL     1      -9.136  13.887  66.514  0.00  0.00    +0.008 C 
ATOM     11  C   UNL     1      -9.977  13.828  65.475  0.00  0.00    +0.059 C 
ATOM     12  C   UNL     1     -10.983  14.939  65.595  0.00  0.00    +0.221 C 
ATOM     13  O   UNL     1     -11.516  14.927  66.857  0.00  0.00    -0.197 OA
ATOM     14  C   UNL     1     -12.076  14.587  64.615  0.00  0.00    +0.064 C 
ATOM     15  O   UNL     1     -10.351  15.940  65.104  0.00  0.00    -0.306 OA
ATOM     16  C   UNL     1      -9.213  16.498  65.966  0.00  0.00    +0.268 C 
ATOM     17  O   UNL     1     -11.199  16.130  67.327  0.00  0.00    -0.218 OA
ATOM     18  C   UNL     1      -7.742  17.009  68.365  0.00  0.00    +0.003 C 
ATOM     19  O   UNL     1     -10.037  17.788  65.925  0.00  0.00    -0.304 OA
ENDROOT
BRANCH   1  21
ATOM     20  C   UNL     1      -7.090  18.634  65.715  0.00  0.00    +0.177 C 
ATOM     21  O   UNL     1      -7.831  18.023  66.503  0.00  0.00    -0.328 OA
ENDBRANCH   1  21
TORSDOF 1
ENDMDL
