MODEL 1
REMARK VINA RESULT:      -5.6      0.000      0.000
REMARK  Name = 
REMARK  9 active torsions:
REMARK  status: ('A' for Active; 'I' for Inactive)
REMARK    1  A    between atoms: C_2  and  C_3
REMARK    2  A    between atoms: C_3  and  C_4
REMARK    3  A    between atoms: C_4  and  C_6
REMARK    4  A    between atoms: C_4  and  C_11
REMARK    5  A    between atoms: C_6  and  O_7
REMARK    6  A    between atoms: O_7  and  C_8
REMARK    7  A    between atoms: C_11  and  O_12
REMARK    8  A    between atoms: O_12  and  C_13
REMARK    9  A    between atoms: N_15  and  C_16
REMARK                            x       y       z     vdW  Elec       q    Type
REMARK                         _______ _______ _______ _____ _____    ______ ____
ROOT
ATOM      1  C   UNL     1      -9.621  17.372  67.584  0.00  0.00    +0.081 C 
ATOM      2  C   UNL     1      -8.383  18.015  68.170  0.00  0.00    +0.007 C 
ENDROOT
BRANCH   1   3
ATOM      3  C   UNL     1     -10.168  16.406  68.585  0.00  0.00    +0.214 C 
BRANCH   3   4
ATOM      4  O   UNL     1     -11.503  16.635  68.945  0.00  0.00    -0.433 OA
BRANCH   4   5
ATOM      5  C   UNL     1     -12.141  15.671  69.702  0.00  0.00    +0.421 C 
ATOM      6  N   UNL     1     -12.863  15.943  70.891  0.00  0.00    -0.170 NA
ATOM      7  O   UNL     1     -12.101  14.459  69.332  0.00  0.00    -0.225 OA
BRANCH   6   8
ATOM      8  C   UNL     1     -13.175  14.900  71.861  0.00  0.00    +0.099 C 
ATOM      9  C   UNL     1     -14.671  14.653  71.785  0.00  0.00    +0.024 C 
ATOM     10  C   UNL     1     -12.797  15.302  73.266  0.00  0.00    +0.024 C 
ENDBRANCH   6   8
ENDBRANCH   4   5
ENDBRANCH   3   4
ENDBRANCH   1   3
BRANCH   1  11
ATOM     11  C   UNL     1      -9.341  16.779  66.236  0.00  0.00    +0.214 C 
BRANCH  11  12
ATOM     12  O   UNL     1     -10.289  15.754  65.987  0.00  0.00    -0.432 OA
BRANCH  12  13
ATOM     13  C   UNL     1     -11.079  15.802  64.843  0.00  0.00    +0.441 C 
ATOM     14  O   UNL     1     -11.297  16.884  64.255  0.00  0.00    -0.223 OA
ATOM     15  N   UNL     1     -11.980  14.722  64.637  0.00  0.00    -0.048 NA
ENDBRANCH  12  13
ENDBRANCH  11  12
ENDBRANCH   1  11
BRANCH   1  16
ATOM     16  C   UNL     1     -10.648  18.488  67.433  0.00  0.00    +0.007 C 
BRANCH  16  18
ATOM     17  C   UNL     1     -10.273  19.835  66.110  0.00  0.00    +0.000 C 
ATOM     18  C   UNL     1     -10.108  19.418  66.352  0.00  0.00    +0.000 C 
ENDBRANCH  16  18
ENDBRANCH   1  16
TORSDOF 9
ENDMDL
MODEL 2
REMARK VINA RESULT:      -5.3      2.499      6.782
REMARK  Name = 
REMARK  9 active torsions:
REMARK  status: ('A' for Active; 'I' for Inactive)
REMARK    1  A    between atoms: C_2  and  C_3
REMARK    2  A    between atoms: C_3  and  C_4
REMARK    3  A    between atoms: C_4  and  C_6
REMARK    4  A    between atoms: C_4  and  C_11
REMARK    5  A    between atoms: C_6  and  O_7
REMARK    6  A    between atoms: O_7  and  C_8
REMARK    7  A    between atoms: C_11  and  O_12
REMARK    8  A    between atoms: O_12  and  C_13
REMARK    9  A    between atoms: N_15  and  C_16
REMARK                            x       y       z     vdW  Elec       q    Type
REMARK                         _______ _______ _______ _____ _____    ______ ____
ROOT
ATOM      1  C   UNL     1     -13.057  14.588  71.625  0.00  0.00    +0.081 C 
ATOM      2  C   UNL     1     -14.320  15.378  71.892  0.00  0.00    +0.007 C 
ENDROOT
BRANCH   1   3
ATOM      3  C   UNL     1     -12.643  14.827  70.209  0.00  0.00    +0.214 C 
BRANCH   3   4
ATOM      4  O   UNL     1     -12.127  16.106  69.963  0.00  0.00    -0.433 OA
BRANCH   4   5
ATOM      5  C   UNL     1     -11.451  16.312  68.774  0.00  0.00    +0.421 C 
ATOM      6  N   UNL     1     -10.681  17.467  68.487  0.00  0.00    -0.170 NA
ATOM      7  O   UNL     1     -11.501  15.427  67.868  0.00  0.00    -0.225 OA
BRANCH   6   8
ATOM      8  C   UNL     1     -10.322  17.836  67.123  0.00  0.00    +0.099 C 
ATOM      9  C   UNL     1      -8.838  17.562  66.961  0.00  0.00    +0.024 C 
ATOM     10  C   UNL     1     -10.604  19.291  66.838  0.00  0.00    +0.024 C 
ENDBRANCH   6   8
ENDBRANCH   4   5
ENDBRANCH   3   4
ENDBRANCH   1   3
BRANCH   1  11
ATOM     11  C   UNL     1     -13.233  13.144  71.986  0.00  0.00    +0.214 C 
BRANCH  11  12
ATOM     12  O   UNL     1     -12.566  12.351  71.016  0.00  0.00    -0.432 OA
BRANCH  12  13
ATOM     13  C   UNL     1     -12.597  10.964  71.113  0.00  0.00    +0.441 C 
ATOM     14  O   UNL     1     -13.263  10.394  72.005  0.00  0.00    -0.223 OA
ATOM     15  N   UNL     1     -11.529  10.252  70.502  0.00  0.00    -0.048 NA
ENDBRANCH  12  13
ENDBRANCH  11  12
ENDBRANCH   1  11
BRANCH   1  16
ATOM     16  C   UNL     1     -11.979  15.196  72.515  0.00  0.00    +0.007 C 
BRANCH  16  18
ATOM     17  C   UNL     1     -12.461  15.519  74.350  0.00  0.00    +0.000 C 
ATOM     18  C   UNL     1     -12.623  15.399  73.882  0.00  0.00    +0.000 C 
ENDBRANCH  16  18
ENDBRANCH   1  16
TORSDOF 9
ENDMDL
MODEL 3
REMARK VINA RESULT:      -5.2      2.603      6.723
REMARK  Name = 
REMARK  9 active torsions:
REMARK  status: ('A' for Active; 'I' for Inactive)
REMARK    1  A    between atoms: C_2  and  C_3
REMARK    2  A    between atoms: C_3  and  C_4
REMARK    3  A    between atoms: C_4  and  C_6
REMARK    4  A    between atoms: C_4  and  C_11
REMARK    5  A    between atoms: C_6  and  O_7
REMARK    6  A    between atoms: O_7  and  C_8
REMARK    7  A    between atoms: C_11  and  O_12
REMARK    8  A    between atoms: O_12  and  C_13
REMARK    9  A    between atoms: N_15  and  C_16
REMARK                            x       y       z     vdW  Elec       q    Type
REMARK                         _______ _______ _______ _____ _____    ______ ____
ROOT
ATOM      1  C   UNL     1     -13.004  14.544  71.480  0.00  0.00    +0.081 C 
ATOM      2  C   UNL     1     -14.311  15.294  71.627  0.00  0.00    +0.007 C 
ENDROOT
BRANCH   1   3
ATOM      3  C   UNL     1     -12.527  14.704  70.072  0.00  0.00    +0.214 C 
BRANCH   3   4
ATOM      4  O   UNL     1     -12.253  16.027  69.698  0.00  0.00    -0.433 OA
BRANCH   4   5
ATOM      5  C   UNL     1     -11.464  16.231  68.581  0.00  0.00    +0.421 C 
ATOM      6  N   UNL     1     -11.137  15.221  67.643  0.00  0.00    -0.170 NA
ATOM      7  O   UNL     1     -10.995  17.386  68.353  0.00  0.00    -0.225 OA
BRANCH   6   8
ATOM      8  C   UNL     1     -10.011  15.354  66.726  0.00  0.00    +0.099 C 
ATOM      9  C   UNL     1     -10.584  15.408  65.321  0.00  0.00    +0.024 C 
ATOM     10  C   UNL     1      -9.049  14.197  66.839  0.00  0.00    +0.024 C 
ENDBRANCH   6   8
ENDBRANCH   4   5
ENDBRANCH   3   4
ENDBRANCH   1   3
BRANCH   1  11
ATOM     11  C   UNL     1     -13.139  13.122  71.933  0.00  0.00    +0.214 C 
BRANCH  11  12
ATOM     12  O   UNL     1     -12.485  12.284  70.994  0.00  0.00    -0.432 OA
BRANCH  12  13
ATOM     13  C   UNL     1     -12.624  10.903  71.081  0.00  0.00    +0.441 C 
ATOM     14  O   UNL     1     -13.255  10.376  72.023  0.00  0.00    -0.223 OA
ATOM     15  N   UNL     1     -11.678  10.115  70.371  0.00  0.00    -0.048 NA
ENDBRANCH  12  13
ENDBRANCH  11  12
ENDBRANCH   1  11
BRANCH   1  16
ATOM     16  C   UNL     1     -12.000  15.260  72.376  0.00  0.00    +0.007 C 
BRANCH  16  18
ATOM     17  C   UNL     1     -12.474  15.430  74.234  0.00  0.00    +0.000 C 
ATOM     18  C   UNL     1     -12.628  15.304  73.765  0.00  0.00    +0.000 C 
ENDBRANCH  16  18
ENDBRANCH   1  16
TORSDOF 9
ENDMDL
MODEL 4
REMARK VINA RESULT:      -5.2      2.809      4.554
REMARK  Name = 
REMARK  9 active torsions:
REMARK  status: ('A' for Active; 'I' for Inactive)
REMARK    1  A    between atoms: C_2  and  C_3
REMARK    2  A    between atoms: C_3  and  C_4
REMARK    3  A    between atoms: C_4  and  C_6
REMARK    4  A    between atoms: C_4  and  C_11
REMARK    5  A    between atoms: C_6  and  O_7
REMARK    6  A    between atoms: O_7  and  C_8
REMARK    7  A    between atoms: C_11  and  O_12
REMARK    8  A    between atoms: O_12  and  C_13
REMARK    9  A    between atoms: N_15  and  C_16
REMARK                            x       y       z     vdW  Elec       q    Type
REMARK                         _______ _______ _______ _____ _____    ______ ____
ROOT
ATOM      1  C   UNL     1     -10.910  12.675  65.779  0.00  0.00    +0.081 C 
ATOM      2  C   UNL     1     -12.395  12.695  65.486  0.00  0.00    +0.007 C 
ENDROOT
BRANCH   1   3
ATOM      3  C   UNL     1     -10.723  12.770  67.260  0.00  0.00    +0.214 C 
BRANCH   3   4
ATOM      4  O   UNL     1     -11.905  12.982  67.982  0.00  0.00    -0.433 OA
BRANCH   4   5
ATOM      5  C   UNL     1     -11.978  14.104  68.787  0.00  0.00    +0.421 C 
ATOM      6  N   UNL     1     -12.393  14.085  70.142  0.00  0.00    -0.170 NA
ATOM      7  O   UNL     1     -11.653  15.233  68.312  0.00  0.00    -0.225 OA
BRANCH   6   8
ATOM      8  C   UNL     1     -12.836  15.291  70.830  0.00  0.00    +0.099 C 
ATOM      9  C   UNL     1     -11.839  15.563  71.942  0.00  0.00    +0.024 C 
ATOM     10  C   UNL     1     -14.219  15.134  71.414  0.00  0.00    +0.024 C 
ENDBRANCH   6   8
ENDBRANCH   4   5
ENDBRANCH   3   4
ENDBRANCH   1   3
BRANCH   1  11
ATOM     11  C   UNL     1     -10.186  13.724  64.992  0.00  0.00    +0.214 C 
BRANCH  11  12
ATOM     12  O   UNL     1     -11.120  14.712  64.587  0.00  0.00    -0.432 OA
BRANCH  12  13
ATOM     13  C   UNL     1     -10.900  16.048  64.904  0.00  0.00    +0.441 C 
ATOM     14  O   UNL     1     -11.412  16.965  64.225  0.00  0.00    -0.223 OA
ATOM     15  N   UNL     1      -9.751  16.343  65.687  0.00  0.00    -0.048 NA
ENDBRANCH  12  13
ENDBRANCH  11  12
ENDBRANCH   1  11
BRANCH   1  16
ATOM     16  C   UNL     1     -10.411  11.299  65.354  0.00  0.00    +0.007 C 
BRANCH  16  18
ATOM     17  C   UNL     1     -10.435  10.917  63.468  0.00  0.00    +0.000 C 
ATOM     18  C   UNL     1     -10.549  11.249  63.836  0.00  0.00    +0.000 C 
ENDBRANCH  16  18
ENDBRANCH   1  16
TORSDOF 9
ENDMDL
MODEL 5
REMARK VINA RESULT:      -5.1      3.080      5.898
REMARK  Name = 
REMARK  9 active torsions:
REMARK  status: ('A' for Active; 'I' for Inactive)
REMARK    1  A    between atoms: C_2  and  C_3
REMARK    2  A    between atoms: C_3  and  C_4
REMARK    3  A    between atoms: C_4  and  C_6
REMARK    4  A    between atoms: C_4  and  C_11
REMARK    5  A    between atoms: C_6  and  O_7
REMARK    6  A    between atoms: O_7  and  C_8
REMARK    7  A    between atoms: C_11  and  O_12
REMARK    8  A    between atoms: O_12  and  C_13
REMARK    9  A    between atoms: N_15  and  C_16
REMARK                            x       y       z     vdW  Elec       q    Type
REMARK                         _______ _______ _______ _____ _____    ______ ____
ROOT
ATOM      1  C   UNL     1     -11.399  13.735  67.002  0.00  0.00    +0.081 C 
ATOM      2  C   UNL     1     -11.861  14.375  68.293  0.00  0.00    +0.007 C 
ENDROOT
BRANCH   1   3
ATOM      3  C   UNL     1     -10.201  14.483  66.509  0.00  0.00    +0.214 C 
BRANCH   3   4
ATOM      4  O   UNL     1     -10.368  15.086  65.256  0.00  0.00    -0.433 OA
BRANCH   4   5
ATOM      5  C   UNL     1     -10.422  16.467  65.206  0.00  0.00    +0.421 C 
ATOM      6  N   UNL     1      -9.604  17.323  65.984  0.00  0.00    -0.170 NA
ATOM      7  O   UNL     1     -11.242  17.030  64.420  0.00  0.00    -0.225 OA
BRANCH   6   8
ATOM      8  C   UNL     1      -9.946  18.722  66.209  0.00  0.00    +0.099 C 
ATOM      9  C   UNL     1      -8.644  19.503  66.228  0.00  0.00    +0.024 C 
ATOM     10  C   UNL     1     -10.678  18.924  67.513  0.00  0.00    +0.024 C 
ENDBRANCH   6   8
ENDBRANCH   4   5
ENDBRANCH   3   4
ENDBRANCH   1   3
BRANCH   1  11
ATOM     11  C   UNL     1     -12.520  13.636  66.012  0.00  0.00    +0.214 C 
BRANCH  11  12
ATOM     12  O   UNL     1     -12.439  12.378  65.360  0.00  0.00    -0.432 OA
BRANCH  12  13
ATOM     13  C   UNL     1     -12.172  12.318  63.997  0.00  0.00    +0.441 C 
ATOM     14  O   UNL     1     -13.048  11.953  63.183  0.00  0.00    -0.223 OA
ATOM     15  N   UNL     1     -10.807  12.227  63.612  0.00  0.00    -0.048 NA
ENDBRANCH  12  13
ENDBRANCH  11  12
ENDBRANCH   1  11
BRANCH   1  16
ATOM     16  C   UNL     1     -10.931  12.331  67.366  0.00  0.00    +0.007 C 
BRANCH  16  18
ATOM     17  C   UNL     1     -11.753  11.522  68.906  0.00  0.00    +0.000 C 
ATOM     18  C   UNL     1     -11.696  11.943  68.627  0.00  0.00    +0.000 C 
ENDBRANCH  16  18
ENDBRANCH   1  16
TORSDOF 9
ENDMDL
MODEL 6
REMARK VINA RESULT:      -5.1      2.130      5.003
REMARK  Name = 
REMARK  9 active torsions:
REMARK  status: ('A' for Active; 'I' for Inactive)
REMARK    1  A    between atoms: C_2  and  C_3
REMARK    2  A    between atoms: C_3  and  C_4
REMARK    3  A    between atoms: C_4  and  C_6
REMARK    4  A    between atoms: C_4  and  C_11
REMARK    5  A    between atoms: C_6  and  O_7
REMARK    6  A    between atoms: O_7  and  C_8
REMARK    7  A    between atoms: C_11  and  O_12
REMARK    8  A    between atoms: O_12  and  C_13
REMARK    9  A    between atoms: N_15  and  C_16
REMARK                            x       y       z     vdW  Elec       q    Type
REMARK                         _______ _______ _______ _____ _____    ______ ____
ROOT
ATOM      1  C   UNL     1      -9.681  18.653  67.454  0.00  0.00    +0.081 C 
ATOM      2  C   UNL     1      -9.792  20.148  67.661  0.00  0.00    +0.007 C 
ENDROOT
BRANCH   1   3
ATOM      3  C   UNL     1     -10.445  18.292  66.220  0.00  0.00    +0.214 C 
BRANCH   3   4
ATOM      4  O   UNL     1      -9.904  17.222  65.495  0.00  0.00    -0.433 OA
BRANCH   4   5
ATOM      5  C   UNL     1     -10.781  16.298  64.958  0.00  0.00    +0.421 C 
ATOM      6  N   UNL     1     -10.908  14.963  65.416  0.00  0.00    -0.170 NA
ATOM      7  O   UNL     1     -11.536  16.639  63.999  0.00  0.00    -0.225 OA
BRANCH   6   8
ATOM      8  C   UNL     1     -11.525  13.923  64.602  0.00  0.00    +0.099 C 
ATOM      9  C   UNL     1     -12.624  13.293  65.439  0.00  0.00    +0.024 C 
ATOM     10  C   UNL     1     -10.532  12.864  64.189  0.00  0.00    +0.024 C 
ENDBRANCH   6   8
ENDBRANCH   4   5
ENDBRANCH   3   4
ENDBRANCH   1   3
BRANCH   1  11
ATOM     11  C   UNL     1     -10.093  17.901  68.683  0.00  0.00    +0.214 C 
BRANCH  11  12
ATOM     12  O   UNL     1     -11.229  17.110  68.370  0.00  0.00    -0.432 OA
BRANCH  12  13
ATOM     13  C   UNL     1     -11.530  15.992  69.139  0.00  0.00    +0.441 C 
ATOM     14  O   UNL     1     -12.237  16.087  70.166  0.00  0.00    -0.223 OA
ATOM     15  N   UNL     1     -10.667  14.870  69.010  0.00  0.00    -0.048 NA
ENDBRANCH  12  13
ENDBRANCH  11  12
ENDBRANCH   1  11
BRANCH   1  16
ATOM     16  C   UNL     1      -8.210  18.372  67.167  0.00  0.00    +0.007 C 
BRANCH  16  18
ATOM     17  C   UNL     1      -7.045  18.554  68.688  0.00  0.00    +0.000 C 
ATOM     18  C   UNL     1      -7.454  18.731  68.442  0.00  0.00    +0.000 C 
ENDBRANCH  16  18
ENDBRANCH   1  16
TORSDOF 9
ENDMDL
MODEL 7
REMARK VINA RESULT:      -5.1      1.976      2.709
REMARK  Name = 
REMARK  9 active torsions:
REMARK  status: ('A' for Active; 'I' for Inactive)
REMARK    1  A    between atoms: C_2  and  C_3
REMARK    2  A    between atoms: C_3  and  C_4
REMARK    3  A    between atoms: C_4  and  C_6
REMARK    4  A    between atoms: C_4  and  C_11
REMARK    5  A    between atoms: C_6  and  O_7
REMARK    6  A    between atoms: O_7  and  C_8
REMARK    7  A    between atoms: C_11  and  O_12
REMARK    8  A    between atoms: O_12  and  C_13
REMARK    9  A    between atoms: N_15  and  C_16
REMARK                            x       y       z     vdW  Elec       q    Type
REMARK                         _______ _______ _______ _____ _____    ______ ____
ROOT
ATOM      1  C   UNL     1     -10.127  14.415  66.559  0.00  0.00    +0.081 C 
ATOM      2  C   UNL     1      -9.377  13.260  67.187  0.00  0.00    +0.007 C 
ENDROOT
BRANCH   1   3
ATOM      3  C   UNL     1     -11.439  14.561  67.262  0.00  0.00    +0.214 C 
BRANCH   3   4
ATOM      4  O   UNL     1     -11.426  14.163  68.605  0.00  0.00    -0.433 OA
BRANCH   4   5
ATOM      5  C   UNL     1     -11.936  15.041  69.543  0.00  0.00    +0.421 C 
ATOM      6  N   UNL     1     -12.419  14.651  70.817  0.00  0.00    -0.170 NA
ATOM      7  O   UNL     1     -11.981  16.280  69.277  0.00  0.00    -0.225 OA
BRANCH   6   8
ATOM      8  C   UNL     1     -13.296  15.509  71.606  0.00  0.00    +0.099 C 
ATOM      9  C   UNL     1     -12.741  15.538  73.018  0.00  0.00    +0.024 C 
ATOM     10  C   UNL     1     -14.716  14.997  71.628  0.00  0.00    +0.024 C 
ENDBRANCH   6   8
ENDBRANCH   4   5
ENDBRANCH   3   4
ENDBRANCH   1   3
BRANCH   1  11
ATOM     11  C   UNL     1     -10.233  14.252  65.073  0.00  0.00    +0.214 C 
BRANCH  11  12
ATOM     12  O   UNL     1     -11.086  13.152  64.798  0.00  0.00    -0.432 OA
BRANCH  12  13
ATOM     13  C   UNL     1     -12.119  13.289  63.878  0.00  0.00    +0.441 C 
ATOM     14  O   UNL     1     -12.680  14.392  63.696  0.00  0.00    -0.223 OA
ATOM     15  N   UNL     1     -12.814  12.105  63.508  0.00  0.00    -0.048 NA
ENDBRANCH  12  13
ENDBRANCH  11  12
ENDBRANCH   1  11
BRANCH   1  16
ATOM     16  C   UNL     1      -9.315  15.668  66.867  0.00  0.00    +0.007 C 
BRANCH  16  18
ATOM     17  C   UNL     1     -10.062  17.346  66.293  0.00  0.00    +0.000 C 
ATOM     18  C   UNL     1     -10.115  16.839  66.308  0.00  0.00    +0.000 C 
ENDBRANCH  16  18
ENDBRANCH   1  16
TORSDOF 9
ENDMDL
MODEL 8
REMARK VINA RESULT:      -5.1      2.935      4.874
REMARK  Name = 
REMARK  9 active torsions:
REMARK  status: ('A' for Active; 'I' for Inactive)
REMARK    1  A    between atoms: C_2  and  C_3
REMARK    2  A    between atoms: C_3  and  C_4
REMARK    3  A    between atoms: C_4  and  C_6
REMARK    4  A    between atoms: C_4  and  C_11
REMARK    5  A    between atoms: C_6  and  O_7
REMARK    6  A    between atoms: O_7  and  C_8
REMARK    7  A    between atoms: C_11  and  O_12
REMARK    8  A    between atoms: O_12  and  C_13
REMARK    9  A    between atoms: N_15  and  C_16
REMARK                            x       y       z     vdW  Elec       q    Type
REMARK                         _______ _______ _______ _____ _____    ______ ____
ROOT
ATOM      1  C   UNL     1     -11.483  12.985  64.912  0.00  0.00    +0.081 C 
ATOM      2  C   UNL     1     -12.848  13.597  65.136  0.00  0.00    +0.007 C 
ENDROOT
BRANCH   1   3
ATOM      3  C   UNL     1     -11.273  11.917  65.937  0.00  0.00    +0.214 C 
BRANCH   3   4
ATOM      4  O   UNL     1     -12.035  12.073  67.102  0.00  0.00    -0.433 OA
BRANCH   4   5
ATOM      5  C   UNL     1     -11.453  12.727  68.172  0.00  0.00    +0.421 C 
ATOM      6  N   UNL     1     -12.111  13.705  68.960  0.00  0.00    -0.170 NA
ATOM      7  O   UNL     1     -10.259  12.452  68.496  0.00  0.00    -0.225 OA
BRANCH   6   8
ATOM      8  C   UNL     1     -11.375  14.644  69.798  0.00  0.00    +0.099 C 
ATOM      9  C   UNL     1     -12.018  14.614  71.173  0.00  0.00    +0.024 C 
ATOM     10  C   UNL     1     -11.419  16.048  69.247  0.00  0.00    +0.024 C 
ENDBRANCH   6   8
ENDBRANCH   4   5
ENDBRANCH   3   4
ENDBRANCH   1   3
BRANCH   1  11
ATOM     11  C   UNL     1     -10.414  14.036  64.881  0.00  0.00    +0.214 C 
BRANCH  11  12
ATOM     12  O   UNL     1     -10.793  15.093  65.748  0.00  0.00    -0.432 OA
BRANCH  12  13
ATOM     13  C   UNL     1     -10.686  16.412  65.322  0.00  0.00    +0.441 C 
ATOM     14  O   UNL     1     -11.259  16.803  64.281  0.00  0.00    -0.223 OA
ATOM     15  N   UNL     1      -9.579  17.158  65.809  0.00  0.00    -0.048 NA
ENDBRANCH  12  13
ENDBRANCH  11  12
ENDBRANCH   1  11
BRANCH   1  16
ATOM     16  C   UNL     1     -11.544  12.296  63.554  0.00  0.00    +0.007 C 
BRANCH  16  18
ATOM     17  C   UNL     1     -10.012  11.243  63.053  0.00  0.00    +0.000 C 
ATOM     18  C   UNL     1     -10.244  11.508  63.420  0.00  0.00    +0.000 C 
ENDBRANCH  16  18
ENDBRANCH   1  16
TORSDOF 9
ENDMDL
MODEL 9
REMARK VINA RESULT:      -5.0      4.092      5.504
REMARK  Name = 
REMARK  9 active torsions:
REMARK  status: ('A' for Active; 'I' for Inactive)
REMARK    1  A    between atoms: C_2  and  C_3
REMARK    2  A    between atoms: C_3  and  C_4
REMARK    3  A    between atoms: C_4  and  C_6
REMARK    4  A    between atoms: C_4  and  C_11
REMARK    5  A    between atoms: C_6  and  O_7
REMARK    6  A    between atoms: O_7  and  C_8
REMARK    7  A    between atoms: C_11  and  O_12
REMARK    8  A    between atoms: O_12  and  C_13
REMARK    9  A    between atoms: N_15  and  C_16
REMARK                            x       y       z     vdW  Elec       q    Type
REMARK                         _______ _______ _______ _____ _____    ______ ____
ROOT
ATOM      1  C   UNL     1     -11.386  12.737  65.965  0.00  0.00    +0.081 C 
ATOM      2  C   UNL     1     -12.622  12.926  65.114  0.00  0.00    +0.007 C 
ENDROOT
BRANCH   1   3
ATOM      3  C   UNL     1     -11.808  12.671  67.398  0.00  0.00    +0.214 C 
BRANCH   3   4
ATOM      4  O   UNL     1     -11.959  11.371  67.900  0.00  0.00    -0.433 OA
BRANCH   4   5
ATOM      5  C   UNL     1     -11.822  11.185  69.263  0.00  0.00    +0.421 C 
ATOM      6  N   UNL     1     -11.623   9.923  69.877  0.00  0.00    -0.170 NA
ATOM      7  O   UNL     1     -11.866  12.189  70.036  0.00  0.00    -0.225 OA
BRANCH   6   8
ATOM      8  C   UNL     1     -11.878   9.707  71.296  0.00  0.00    +0.099 C 
ATOM      9  C   UNL     1     -10.799   8.769  71.806  0.00  0.00    +0.024 C 
ATOM     10  C   UNL     1     -13.238   9.099  71.541  0.00  0.00    +0.024 C 
ENDBRANCH   6   8
ENDBRANCH   4   5
ENDBRANCH   3   4
ENDBRANCH   1   3
BRANCH   1  11
ATOM     11  C   UNL     1     -10.355  13.784  65.669  0.00  0.00    +0.214 C 
BRANCH  11  12
ATOM     12  O   UNL     1     -10.887  14.683  64.707  0.00  0.00    -0.432 OA
BRANCH  12  13
ATOM     13  C   UNL     1     -10.817  16.054  64.926  0.00  0.00    +0.441 C 
ATOM     14  O   UNL     1     -11.409  16.858  64.173  0.00  0.00    -0.223 OA
ATOM     15  N   UNL     1      -9.725  16.528  65.702  0.00  0.00    -0.048 NA
ENDBRANCH  12  13
ENDBRANCH  11  12
ENDBRANCH   1  11
BRANCH   1  16
ATOM     16  C   UNL     1     -10.824  11.368  65.601  0.00  0.00    +0.007 C 
BRANCH  16  18
ATOM     17  C   UNL     1     -10.632  10.985  63.725  0.00  0.00    +0.000 C 
ATOM     18  C   UNL     1     -10.803  11.310  64.077  0.00  0.00    +0.000 C 
ENDBRANCH  16  18
ENDBRANCH   1  16
TORSDOF 9
ENDMDL
