MODEL 1
REMARK VINA RESULT:      -6.5      0.000      0.000
REMARK  Name = 
REMARK  2 active torsions:
REMARK  status: ('A' for Active; 'I' for Inactive)
REMARK    1  A    between atoms: C_2  and  C_3
REMARK    2  A    between atoms: C_21  and  C_22
REMARK                            x       y       z     vdW  Elec       q    Type
REMARK                         _______ _______ _______ _____ _____    ______ ____
ROOT
ATOM      1  C   UNL     1     -10.076  16.730  68.437  0.00  0.00    +0.180 C 
ATOM      2  C   UNL     1     -10.140  15.507  67.514  0.00  0.00    +0.037 C 
ATOM      3  C   UNL     1     -11.687  15.249  67.900  0.00  0.00    +0.003 C 
ATOM      4  C   UNL     1     -11.949  13.716  67.234  0.00  0.00    +0.001 C 
ATOM      5  C   UNL     1     -10.696  13.730  66.119  0.00  0.00    +0.004 C 
ATOM      6  C   UNL     1     -11.242  15.056  65.391  0.00  0.00    +0.000 C 
ATOM      7  C   UNL     1     -11.479  12.577  65.174  0.00  0.00    +0.019 C 
ATOM      8  C   UNL     1     -10.886  11.437  66.120  0.00  0.00    -0.042 C 
ATOM      9  C   UNL     1     -10.377  10.373  65.599  0.00  0.00    +0.029 C 
ATOM     10  C   UNL     1      -9.812  10.253  64.250  0.00  0.00    +0.173 C 
ATOM     11  C   UNL     1     -10.366  11.295  63.320  0.00  0.00    +0.069 C 
ATOM     12  O   UNL     1      -8.585  10.002  64.047  0.00  0.00    -0.291 OA
ATOM     13  C   UNL     1     -11.294  11.453  67.538  0.00  0.00    +0.022 C 
ATOM     14  C   UNL     1     -10.230  12.567  64.134  0.00  0.00    +0.012 C 
ATOM     15  C   UNL     1     -11.093  12.790  68.231  0.00  0.00    +0.004 C 
ATOM     16  C   UNL     1     -11.239  14.820  69.400  0.00  0.00    +0.004 C 
ATOM     17  C   UNL     1     -10.227  15.968  66.096  0.00  0.00    +0.003 C 
ATOM     18  C   UNL     1     -10.425  16.073  69.731  0.00  0.00    +0.043 C 
ATOM     19  O   UNL     1     -11.070  17.576  68.000  0.00  0.00    -0.212 OA
ENDROOT
BRANCH   1  21
ATOM     20  C   UNL     1      -7.849  17.857  68.375  0.00  0.00    -0.012 C 
ATOM     21  C   UNL     1      -8.734  17.292  68.375  0.00  0.00    -0.049 C 
ENDBRANCH   1  21
BRANCH   2  22
ATOM     22  C   UNL     1      -9.216  14.578  67.973  0.00  0.00    +0.003 C 
ATOM     23  C   UNL     1      -7.916  14.227  67.458  0.00  0.00    +0.000 C 
ENDBRANCH   2  22
TORSDOF 2
ENDMDL
MODEL 2
REMARK VINA RESULT:      -6.2      2.317      3.534
REMARK  Name = 
REMARK  2 active torsions:
REMARK  status: ('A' for Active; 'I' for Inactive)
REMARK    1  A    between atoms: C_2  and  C_3
REMARK    2  A    between atoms: C_21  and  C_22
REMARK                            x       y       z     vdW  Elec       q    Type
REMARK                         _______ _______ _______ _____ _____    ______ ____
ROOT
ATOM      1  C   UNL     1      -7.870  18.276  67.154  0.00  0.00    +0.180 C 
ATOM      2  C   UNL     1      -8.677  16.992  67.375  0.00  0.00    +0.037 C 
ATOM      3  C   UNL     1     -10.070  17.803  67.265  0.00  0.00    +0.003 C 
ATOM      4  C   UNL     1     -11.179  16.641  67.795  0.00  0.00    +0.001 C 
ATOM      5  C   UNL     1     -10.246  15.278  67.502  0.00  0.00    +0.004 C 
ATOM      6  C   UNL     1     -10.084  15.619  65.938  0.00  0.00    +0.000 C 
ATOM      7  C   UNL     1     -11.624  14.313  67.413  0.00  0.00    +0.019 C 
ATOM      8  C   UNL     1     -11.623  14.211  69.005  0.00  0.00    -0.042 C 
ATOM      9  C   UNL     1     -11.819  13.070  69.574  0.00  0.00    +0.029 C 
ATOM     10  C   UNL     1     -11.562  11.751  68.984  0.00  0.00    +0.173 C 
ATOM     11  C   UNL     1     -11.580  11.800  67.483  0.00  0.00    +0.069 C 
ATOM     12  O   UNL     1     -10.687  10.958  69.449  0.00  0.00    -0.291 OA
ATOM     13  C   UNL     1     -11.796  15.464  69.764  0.00  0.00    +0.022 C 
ATOM     14  C   UNL     1     -10.698  12.996  67.183  0.00  0.00    +0.012 C 
ATOM     15  C   UNL     1     -10.838  16.574  69.366  0.00  0.00    +0.004 C 
ATOM     16  C   UNL     1      -9.750  18.537  68.678  0.00  0.00    +0.004 C 
ATOM     17  C   UNL     1      -8.667  16.184  66.118  0.00  0.00    +0.003 C 
ATOM     18  C   UNL     1      -8.364  19.074  68.314  0.00  0.00    +0.043 C 
ATOM     19  O   UNL     1      -8.305  18.785  65.951  0.00  0.00    -0.212 OA
ENDROOT
BRANCH   1  21
ATOM     20  C   UNL     1      -5.408  17.862  67.114  0.00  0.00    -0.012 C 
ATOM     21  C   UNL     1      -6.452  17.948  67.192  0.00  0.00    -0.049 C 
ENDBRANCH   1  21
BRANCH   2  22
ATOM     22  C   UNL     1      -8.342  16.488  68.624  0.00  0.00    +0.003 C 
ATOM     23  C   UNL     1      -7.499  15.373  68.981  0.00  0.00    +0.000 C 
ENDBRANCH   2  22
TORSDOF 2
ENDMDL
MODEL 3
REMARK VINA RESULT:      -6.0      1.922      2.746
REMARK  Name = 
REMARK  2 active torsions:
REMARK  status: ('A' for Active; 'I' for Inactive)
REMARK    1  A    between atoms: C_2  and  C_3
REMARK    2  A    between atoms: C_21  and  C_22
REMARK                            x       y       z     vdW  Elec       q    Type
REMARK                         _______ _______ _______ _____ _____    ______ ____
ROOT
ATOM      1  C   UNL     1      -9.730  16.471  66.538  0.00  0.00    +0.180 C 
ATOM      2  C   UNL     1      -9.927  14.997  66.907  0.00  0.00    +0.037 C 
ATOM      3  C   UNL     1     -11.527  15.193  67.000  0.00  0.00    +0.003 C 
ATOM      4  C   UNL     1     -12.004  13.738  67.719  0.00  0.00    +0.001 C 
ATOM      5  C   UNL     1     -10.658  12.824  67.310  0.00  0.00    +0.004 C 
ATOM      6  C   UNL     1     -10.857  13.078  65.734  0.00  0.00    +0.000 C 
ATOM      7  C   UNL     1     -11.540  11.398  67.456  0.00  0.00    +0.019 C 
ATOM      8  C   UNL     1     -11.283  11.430  69.030  0.00  0.00    -0.042 C 
ATOM      9  C   UNL     1     -10.934  10.351  69.644  0.00  0.00    +0.029 C 
ATOM     10  C   UNL     1     -10.259   9.193  69.046  0.00  0.00    +0.173 C 
ATOM     11  C   UNL     1     -10.498   9.112  67.566  0.00  0.00    +0.069 C 
ATOM     12  O   UNL     1      -9.088   8.840  69.384  0.00  0.00    -0.291 OA
ATOM     13  C   UNL     1     -11.832  12.574  69.782  0.00  0.00    +0.022 C 
ATOM     14  C   UNL     1     -10.210  10.529  67.109  0.00  0.00    +0.012 C 
ATOM     15  C   UNL     1     -11.455  13.933  69.218  0.00  0.00    +0.004 C 
ATOM     16  C   UNL     1     -11.335  16.103  68.331  0.00  0.00    +0.004 C 
ATOM     17  C   UNL     1      -9.769  14.160  65.680  0.00  0.00    +0.003 C 
ATOM     18  C   UNL     1     -10.337  17.105  67.746  0.00  0.00    +0.043 C 
ATOM     19  O   UNL     1     -10.490  16.675  65.408  0.00  0.00    -0.212 OA
ENDROOT
BRANCH   1  21
ATOM     20  C   UNL     1      -7.332  17.081  66.205  0.00  0.00    -0.012 C 
ATOM     21  C   UNL     1      -8.307  16.723  66.361  0.00  0.00    -0.049 C 
ENDBRANCH   1  21
BRANCH   2  22
ATOM     22  C   UNL     1      -9.253  14.762  68.098  0.00  0.00    +0.003 C 
ATOM     23  C   UNL     1      -8.002  14.089  68.342  0.00  0.00    +0.000 C 
ENDBRANCH   2  22
TORSDOF 2
ENDMDL
MODEL 4
REMARK VINA RESULT:      -6.0      1.982      5.679
REMARK  Name = 
REMARK  2 active torsions:
REMARK  status: ('A' for Active; 'I' for Inactive)
REMARK    1  A    between atoms: C_2  and  C_3
REMARK    2  A    between atoms: C_21  and  C_22
REMARK                            x       y       z     vdW  Elec       q    Type
REMARK                         _______ _______ _______ _____ _____    ______ ____
ROOT
ATOM      1  C   UNL     1     -11.118  11.137  68.199  0.00  0.00    +0.180 C 
ATOM      2  C   UNL     1     -10.788  12.633  68.147  0.00  0.00    +0.037 C 
ATOM      3  C   UNL     1     -11.985  12.901  67.096  0.00  0.00    +0.003 C 
ATOM      4  C   UNL     1     -11.653  14.485  66.605  0.00  0.00    +0.001 C 
ATOM      5  C   UNL     1     -10.725  14.949  67.923  0.00  0.00    +0.004 C 
ATOM      6  C   UNL     1     -11.903  14.633  68.972  0.00  0.00    +0.000 C 
ATOM      7  C   UNL     1     -11.065  16.572  67.634  0.00  0.00    +0.019 C 
ATOM      8  C   UNL     1      -9.893  16.598  66.552  0.00  0.00    -0.042 C 
ATOM      9  C   UNL     1      -9.060  17.583  66.534  0.00  0.00    +0.029 C 
ATOM     10  C   UNL     1      -8.721  18.453  67.665  0.00  0.00    +0.173 C 
ATOM     11  C   UNL     1      -9.813  18.476  68.696  0.00  0.00    +0.069 C 
ATOM     12  O   UNL     1      -7.556  18.490  68.168  0.00  0.00    -0.291 OA
ATOM     13  C   UNL     1     -10.038  15.719  65.376  0.00  0.00    +0.022 C 
ATOM     14  C   UNL     1     -10.118  17.003  68.884  0.00  0.00    +0.012 C 
ATOM     15  C   UNL     1     -10.332  14.268  65.712  0.00  0.00    +0.004 C 
ATOM     16  C   UNL     1     -11.163  12.086  65.957  0.00  0.00    +0.004 C 
ATOM     17  C   UNL     1     -11.290  13.289  69.392  0.00  0.00    +0.003 C 
ATOM     18  C   UNL     1     -10.937  10.800  66.756  0.00  0.00    +0.043 C 
ATOM     19  O   UNL     1     -12.437  11.062  68.587  0.00  0.00    -0.212 OA
ENDROOT
BRANCH   1  21
ATOM     20  C   UNL     1      -9.652   9.897  69.795  0.00  0.00    -0.012 C 
ATOM     21  C   UNL     1     -10.185  10.483  69.105  0.00  0.00    -0.049 C 
ENDBRANCH   1  21
BRANCH   2  22
ATOM     22  C   UNL     1      -9.491  12.766  67.668  0.00  0.00    +0.003 C 
ATOM     23  C   UNL     1      -8.267  13.066  68.369  0.00  0.00    +0.000 C 
ENDBRANCH   2  22
TORSDOF 2
ENDMDL
MODEL 5
REMARK VINA RESULT:      -6.0      2.182      5.981
REMARK  Name = 
REMARK  2 active torsions:
REMARK  status: ('A' for Active; 'I' for Inactive)
REMARK    1  A    between atoms: C_2  and  C_3
REMARK    2  A    between atoms: C_21  and  C_22
REMARK                            x       y       z     vdW  Elec       q    Type
REMARK                         _______ _______ _______ _____ _____    ______ ____
ROOT
ATOM      1  C   UNL     1     -10.970  13.418  67.513  0.00  0.00    +0.180 C 
ATOM      2  C   UNL     1     -10.055  14.621  67.263  0.00  0.00    +0.037 C 
ATOM      3  C   UNL     1      -9.901  14.883  68.850  0.00  0.00    +0.003 C 
ATOM      4  C   UNL     1      -9.155  16.401  68.871  0.00  0.00    +0.001 C 
ATOM      5  C   UNL     1      -8.518  16.369  67.319  0.00  0.00    +0.004 C 
ATOM      6  C   UNL     1      -7.678  15.026  67.598  0.00  0.00    +0.000 C 
ATOM      7  C   UNL     1      -7.346  17.501  67.741  0.00  0.00    +0.019 C 
ATOM      8  C   UNL     1      -8.412  18.660  67.490  0.00  0.00    -0.042 C 
ATOM      9  C   UNL     1      -8.067  19.715  66.833  0.00  0.00    +0.029 C 
ATOM     10  C   UNL     1      -6.979  19.810  65.853  0.00  0.00    +0.173 C 
ATOM     11  C   UNL     1      -5.940  18.749  66.072  0.00  0.00    +0.069 C 
ATOM     12  O   UNL     1      -7.189  20.061  64.626  0.00  0.00    -0.291 OA
ATOM     13  C   UNL     1      -9.614  18.671  68.345  0.00  0.00    +0.022 C 
ATOM     14  C   UNL     1      -6.777  17.494  66.217  0.00  0.00    +0.012 C 
ATOM     15  C   UNL     1     -10.362  17.350  68.389  0.00  0.00    +0.004 C 
ATOM     16  C   UNL     1     -11.456  15.343  68.921  0.00  0.00    +0.004 C 
ATOM     17  C   UNL     1      -8.697  14.132  66.877  0.00  0.00    +0.003 C 
ATOM     18  C   UNL     1     -12.063  14.099  68.268  0.00  0.00    +0.043 C 
ATOM     19  O   UNL     1     -10.246  12.560  68.309  0.00  0.00    -0.212 OA
ENDROOT
BRANCH   1  21
ATOM     20  C   UNL     1     -11.703  12.306  65.400  0.00  0.00    -0.012 C 
ATOM     21  C   UNL     1     -11.368  12.859  66.228  0.00  0.00    -0.049 C 
ENDBRANCH   1  21
BRANCH   2  22
ATOM     22  C   UNL     1     -10.775  15.562  66.540  0.00  0.00    +0.003 C 
ATOM     23  C   UNL     1     -10.720  15.899  65.139  0.00  0.00    +0.000 C 
ENDBRANCH   2  22
TORSDOF 2
ENDMDL
MODEL 6
REMARK VINA RESULT:      -5.8      2.901      5.908
REMARK  Name = 
REMARK  2 active torsions:
REMARK  status: ('A' for Active; 'I' for Inactive)
REMARK    1  A    between atoms: C_2  and  C_3
REMARK    2  A    between atoms: C_21  and  C_22
REMARK                            x       y       z     vdW  Elec       q    Type
REMARK                         _______ _______ _______ _____ _____    ______ ____
ROOT
ATOM      1  C   UNL     1      -9.469   8.554  69.411  0.00  0.00    +0.180 C 
ATOM      2  C   UNL     1      -9.892   9.545  68.321  0.00  0.00    +0.037 C 
ATOM      3  C   UNL     1      -8.360   9.742  67.850  0.00  0.00    +0.003 C 
ATOM      4  C   UNL     1      -8.494  11.072  66.813  0.00  0.00    +0.001 C 
ATOM      5  C   UNL     1     -10.130  10.934  66.468  0.00  0.00    +0.004 C 
ATOM      6  C   UNL     1      -9.971   9.442  65.890  0.00  0.00    +0.000 C 
ATOM      7  C   UNL     1      -9.933  11.790  65.032  0.00  0.00    +0.019 C 
ATOM      8  C   UNL     1     -10.022  13.150  65.860  0.00  0.00    -0.042 C 
ATOM      9  C   UNL     1     -10.748  14.121  65.420  0.00  0.00    +0.029 C 
ATOM     10  C   UNL     1     -11.899  14.004  64.518  0.00  0.00    +0.173 C 
ATOM     11  C   UNL     1     -11.839  12.746  63.700  0.00  0.00    +0.069 C 
ATOM     12  O   UNL     1     -13.077  14.314  64.875  0.00  0.00    -0.291 OA
ATOM     13  C   UNL     1      -8.977  13.396  66.872  0.00  0.00    +0.022 C 
ATOM     14  C   UNL     1     -11.531  11.690  64.743  0.00  0.00    +0.012 C 
ATOM     15  C   UNL     1      -8.783  12.259  67.859  0.00  0.00    +0.004 C 
ATOM     16  C   UNL     1      -8.035  10.515  69.241  0.00  0.00    +0.004 C 
ATOM     17  C   UNL     1     -10.492   8.791  67.180  0.00  0.00    +0.003 C 
ATOM     18  C   UNL     1      -8.553   9.435  70.194  0.00  0.00    +0.043 C 
ATOM     19  O   UNL     1      -8.790   7.551  68.756  0.00  0.00    -0.212 OA
ENDROOT
BRANCH   1  21
ATOM     20  C   UNL     1     -11.394   7.729  70.769  0.00  0.00    -0.012 C 
ATOM     21  C   UNL     1     -10.657   8.112  70.127  0.00  0.00    -0.049 C 
ENDBRANCH   1  21
BRANCH   2  22
ATOM     22  C   UNL     1     -10.502  10.628  68.942  0.00  0.00    +0.003 C 
ATOM     23  C   UNL     1     -11.897  10.977  69.043  0.00  0.00    +0.000 C 
ENDBRANCH   2  22
TORSDOF 2
ENDMDL
MODEL 7
REMARK VINA RESULT:      -5.6      1.667      5.958
REMARK  Name = 
REMARK  2 active torsions:
REMARK  status: ('A' for Active; 'I' for Inactive)
REMARK    1  A    between atoms: C_2  and  C_3
REMARK    2  A    between atoms: C_21  and  C_22
REMARK                            x       y       z     vdW  Elec       q    Type
REMARK                         _______ _______ _______ _____ _____    ______ ____
ROOT
ATOM      1  C   UNL     1      -9.633   9.516  66.470  0.00  0.00    +0.180 C 
ATOM      2  C   UNL     1      -9.930  10.968  66.860  0.00  0.00    +0.037 C 
ATOM      3  C   UNL     1     -11.208  11.012  65.873  0.00  0.00    +0.003 C 
ATOM      4  C   UNL     1     -11.572  12.664  65.867  0.00  0.00    +0.001 C 
ATOM      5  C   UNL     1     -10.812  13.076  67.305  0.00  0.00    +0.004 C 
ATOM      6  C   UNL     1     -11.686  12.035  68.165  0.00  0.00    +0.000 C 
ATOM      7  C   UNL     1     -11.790  14.436  67.472  0.00  0.00    +0.019 C 
ATOM      8  C   UNL     1     -10.808  15.230  66.498  0.00  0.00    -0.042 C 
ATOM      9  C   UNL     1     -10.440  16.429  66.799  0.00  0.00    +0.029 C 
ATOM     10  C   UNL     1     -10.394  17.010  68.145  0.00  0.00    +0.173 C 
ATOM     11  C   UNL     1     -11.326  16.304  69.088  0.00  0.00    +0.069 C 
ATOM     12  O   UNL     1      -9.307  17.372  68.693  0.00  0.00    -0.291 OA
ATOM     13  C   UNL     1     -10.676  14.732  65.116  0.00  0.00    +0.022 C 
ATOM     14  C   UNL     1     -11.005  14.844  68.836  0.00  0.00    +0.012 C 
ATOM     15  C   UNL     1     -10.343  13.254  65.013  0.00  0.00    +0.004 C 
ATOM     16  C   UNL     1     -10.215  10.949  64.590  0.00  0.00    +0.004 C 
ATOM     17  C   UNL     1     -10.559  10.992  68.214  0.00  0.00    +0.003 C 
ATOM     18  C   UNL     1      -9.438   9.696  65.001  0.00  0.00    +0.043 C 
ATOM     19  O   UNL     1     -10.781   8.812  66.758  0.00  0.00    -0.212 OA
ENDROOT
BRANCH   1  21
ATOM     20  C   UNL     1      -7.696   8.589  67.744  0.00  0.00    -0.012 C 
ATOM     21  C   UNL     1      -8.453   9.069  67.196  0.00  0.00    -0.049 C 
ENDBRANCH   1  21
BRANCH   2  22
ATOM     22  C   UNL     1      -8.833  11.739  66.500  0.00  0.00    +0.003 C 
ATOM     23  C   UNL     1      -7.777  12.290  67.313  0.00  0.00    +0.000 C 
ENDBRANCH   2  22
TORSDOF 2
ENDMDL
MODEL 8
REMARK VINA RESULT:      -5.5      1.503      5.842
REMARK  Name = 
REMARK  2 active torsions:
REMARK  status: ('A' for Active; 'I' for Inactive)
REMARK    1  A    between atoms: C_2  and  C_3
REMARK    2  A    between atoms: C_21  and  C_22
REMARK                            x       y       z     vdW  Elec       q    Type
REMARK                         _______ _______ _______ _____ _____    ______ ____
ROOT
ATOM      1  C   UNL     1     -10.395  11.759  66.647  0.00  0.00    +0.180 C 
ATOM      2  C   UNL     1     -10.043  13.242  66.814  0.00  0.00    +0.037 C 
ATOM      3  C   UNL     1     -10.044  13.101  68.423  0.00  0.00    +0.003 C 
ATOM      4  C   UNL     1      -9.982  14.722  68.903  0.00  0.00    +0.001 C 
ATOM      5  C   UNL     1      -9.352  15.360  67.485  0.00  0.00    +0.004 C 
ATOM      6  C   UNL     1      -8.045  14.426  67.543  0.00  0.00    +0.000 C 
ATOM      7  C   UNL     1      -8.751  16.697  68.314  0.00  0.00    +0.019 C 
ATOM      8  C   UNL     1     -10.191  17.375  68.212  0.00  0.00    -0.042 C 
ATOM      9  C   UNL     1     -10.291  18.617  67.877  0.00  0.00    +0.029 C 
ATOM     10  C   UNL     1      -9.314  19.386  67.098  0.00  0.00    +0.173 C 
ATOM     11  C   UNL     1      -7.938  18.793  67.190  0.00  0.00    +0.069 C 
ATOM     12  O   UNL     1      -9.581  19.859  65.950  0.00  0.00    -0.291 OA
ATOM     13  C   UNL     1     -11.313  16.689  68.880  0.00  0.00    +0.022 C 
ATOM     14  C   UNL     1      -8.195  17.323  66.921  0.00  0.00    +0.012 C 
ATOM     15  C   UNL     1     -11.459  15.223  68.510  0.00  0.00    +0.004 C 
ATOM     16  C   UNL     1     -11.653  12.887  68.400  0.00  0.00    +0.004 C 
ATOM     17  C   UNL     1      -8.595  13.439  66.502  0.00  0.00    +0.003 C 
ATOM     18  C   UNL     1     -11.687  11.733  67.394  0.00  0.00    +0.043 C 
ATOM     19  O   UNL     1      -9.402  11.066  67.303  0.00  0.00    -0.212 OA
ENDROOT
BRANCH   1  21
ATOM     20  C   UNL     1     -10.577  11.069  64.254  0.00  0.00    -0.012 C 
ATOM     21  C   UNL     1     -10.501  11.461  65.226  0.00  0.00    -0.049 C 
ENDBRANCH   1  21
BRANCH   2  22
ATOM     22  C   UNL     1     -11.068  13.989  66.249  0.00  0.00    +0.003 C 
ATOM     23  C   UNL     1     -11.115  14.706  64.999  0.00  0.00    +0.000 C 
ENDBRANCH   2  22
TORSDOF 2
ENDMDL
MODEL 9
REMARK VINA RESULT:      -5.5      2.199      3.941
REMARK  Name = 
REMARK  2 active torsions:
REMARK  status: ('A' for Active; 'I' for Inactive)
REMARK    1  A    between atoms: C_2  and  C_3
REMARK    2  A    between atoms: C_21  and  C_22
REMARK                            x       y       z     vdW  Elec       q    Type
REMARK                         _______ _______ _______ _____ _____    ______ ____
ROOT
ATOM      1  C   UNL     1      -8.898  18.869  67.188  0.00  0.00    +0.180 C 
ATOM      2  C   UNL     1      -9.350  17.429  67.458  0.00  0.00    +0.037 C 
ATOM      3  C   UNL     1      -8.084  17.173  68.429  0.00  0.00    +0.003 C 
ATOM      4  C   UNL     1      -8.158  15.497  68.644  0.00  0.00    +0.001 C 
ATOM      5  C   UNL     1      -9.776  15.284  68.253  0.00  0.00    +0.004 C 
ATOM      6  C   UNL     1     -10.276  16.293  69.401  0.00  0.00    +0.000 C 
ATOM      7  C   UNL     1      -9.832  13.847  69.129  0.00  0.00    +0.019 C 
ATOM      8  C   UNL     1      -9.224  13.084  67.867  0.00  0.00    -0.042 C 
ATOM      9  C   UNL     1      -9.731  11.958  67.494  0.00  0.00    +0.029 C 
ATOM     10  C   UNL     1     -11.099  11.494  67.752  0.00  0.00    +0.173 C 
ATOM     11  C   UNL     1     -11.699  12.172  68.951  0.00  0.00    +0.069 C 
ATOM     12  O   UNL     1     -11.936  11.293  66.819  0.00  0.00    -0.291 OA
ATOM     13  C   UNL     1      -7.875  13.481  67.421  0.00  0.00    +0.022 C 
ATOM     14  C   UNL     1     -11.385  13.633  68.694  0.00  0.00    +0.012 C 
ATOM     15  C   UNL     1      -7.706  14.973  67.192  0.00  0.00    +0.004 C 
ATOM     16  C   UNL     1      -7.091  17.238  67.145  0.00  0.00    +0.004 C 
ATOM     17  C   UNL     1     -10.498  17.448  68.414  0.00  0.00    +0.003 C 
ATOM     18  C   UNL     1      -7.552  18.594  66.604  0.00  0.00    +0.043 C 
ATOM     19  O   UNL     1      -8.814  19.470  68.424  0.00  0.00    -0.212 OA
ENDROOT
BRANCH   1  21
ATOM     20  C   UNL     1     -10.635  19.968  65.771  0.00  0.00    -0.012 C 
ATOM     21  C   UNL     1      -9.847  19.493  66.277  0.00  0.00    -0.049 C 
ENDBRANCH   1  21
BRANCH   2  22
ATOM     22  C   UNL     1      -9.359  16.751  66.247  0.00  0.00    +0.003 C 
ATOM     23  C   UNL     1     -10.466  16.258  65.466  0.00  0.00    +0.000 C 
ENDBRANCH   2  22
TORSDOF 2
ENDMDL
