MODEL 1
REMARK VINA RESULT:      -3.9      0.000      0.000
REMARK  Name = 
REMARK  1 active torsions:
REMARK  status: ('A' for Active; 'I' for Inactive)
REMARK    1  A    between atoms: C_4  and  P_5
REMARK                            x       y       z     vdW  Elec       q    Type
REMARK                         _______ _______ _______ _____ _____    ______ ____
ROOT
ATOM      1  C   UNL     1     -13.450  13.387  72.139  0.00  0.00    +0.035 C 
ATOM      2  C   UNL     1     -14.683  14.459  71.874  0.00  0.00    +0.150 C 
ATOM      3  C   UNL     1     -14.160  15.866  72.638  0.00  0.00    +0.193 C 
ATOM      4  O   UNL     1     -13.781  15.575  71.059  0.00  0.00    -0.346 OA
ENDROOT
BRANCH   3   5
ATOM      5  P   UNL     1     -12.470  15.586  73.482  0.00  0.00    +0.146 P 
ATOM      6  O   UNL     1     -12.407  17.040  74.381  0.00  0.00    -0.356 OA
ATOM      7  O   UNL     1     -11.398  15.751  72.171  0.00  0.00    -0.356 OA
ATOM      8  O   UNL     1     -12.228  14.525  74.340  0.00  0.00    -0.458 OA
ENDBRANCH   3   5
TORSDOF 1
ENDMDL
MODEL 2
REMARK VINA RESULT:      -3.7      9.634     10.363
REMARK  Name = 
REMARK  1 active torsions:
REMARK  status: ('A' for Active; 'I' for Inactive)
REMARK    1  A    between atoms: C_4  and  P_5
REMARK                            x       y       z     vdW  Elec       q    Type
REMARK                         _______ _______ _______ _____ _____    ______ ____
ROOT
ATOM      1  C   UNL     1      -5.324  20.846  69.235  0.00  0.00    +0.035 C 
ATOM      2  C   UNL     1      -6.027  19.619  70.095  0.00  0.00    +0.150 C 
ATOM      3  C   UNL     1      -5.107  19.537  71.502  0.00  0.00    +0.193 C 
ATOM      4  O   UNL     1      -6.425  20.526  71.415  0.00  0.00    -0.346 OA
ENDROOT
BRANCH   3   5
ATOM      5  P   UNL     1      -3.685  20.810  71.452  0.00  0.00    +0.146 P 
ATOM      6  O   UNL     1      -2.790  20.225  72.787  0.00  0.00    -0.356 OA
ATOM      7  O   UNL     1      -4.476  22.232  71.953  0.00  0.00    -0.356 OA
ATOM      8  O   UNL     1      -2.830  20.936  70.368  0.00  0.00    -0.458 OA
ENDBRANCH   3   5
TORSDOF 1
ENDMDL
MODEL 3
REMARK VINA RESULT:      -3.7      7.149      8.295
REMARK  Name = 
REMARK  1 active torsions:
REMARK  status: ('A' for Active; 'I' for Inactive)
REMARK    1  A    between atoms: C_4  and  P_5
REMARK                            x       y       z     vdW  Elec       q    Type
REMARK                         _______ _______ _______ _____ _____    ______ ____
ROOT
ATOM      1  C   UNL     1     -10.529  15.992  65.502  0.00  0.00    +0.035 C 
ATOM      2  C   UNL     1     -10.876  15.342  66.984  0.00  0.00    +0.150 C 
ATOM      3  C   UNL     1     -11.794  13.980  66.619  0.00  0.00    +0.193 C 
ATOM      4  O   UNL     1     -10.150  13.884  66.718  0.00  0.00    -0.346 OA
ENDROOT
BRANCH   3   5
ATOM      5  P   UNL     1     -12.061  13.833  64.734  0.00  0.00    +0.146 P 
ATOM      6  O   UNL     1     -13.173  12.533  64.749  0.00  0.00    -0.356 OA
ATOM      7  O   UNL     1     -10.561  13.214  64.220  0.00  0.00    -0.356 OA
ATOM      8  O   UNL     1     -12.593  14.860  63.970  0.00  0.00    -0.458 OA
ENDBRANCH   3   5
TORSDOF 1
ENDMDL
MODEL 4
REMARK VINA RESULT:      -3.7      7.575      8.482
REMARK  Name = 
REMARK  1 active torsions:
REMARK  status: ('A' for Active; 'I' for Inactive)
REMARK    1  A    between atoms: C_4  and  P_5
REMARK                            x       y       z     vdW  Elec       q    Type
REMARK                         _______ _______ _______ _____ _____    ______ ____
ROOT
ATOM      1  C   UNL     1     -12.430  11.911  63.567  0.00  0.00    +0.035 C 
ATOM      2  C   UNL     1     -10.818  12.242  63.394  0.00  0.00    +0.150 C 
ATOM      3  C   UNL     1     -10.468  13.224  64.716  0.00  0.00    +0.193 C 
ATOM      4  O   UNL     1     -10.342  11.584  64.831  0.00  0.00    -0.346 OA
ENDROOT
BRANCH   3   5
ATOM      5  P   UNL     1     -12.040  13.549  65.750  0.00  0.00    +0.146 P 
ATOM      6  O   UNL     1     -11.410  14.770  66.768  0.00  0.00    -0.356 OA
ATOM      7  O   UNL     1     -12.146  12.122  66.673  0.00  0.00    -0.356 OA
ATOM      8  O   UNL     1     -13.223  14.005  65.192  0.00  0.00    -0.458 OA
ENDBRANCH   3   5
TORSDOF 1
ENDMDL
MODEL 5
REMARK VINA RESULT:      -3.6      7.363      8.179
REMARK  Name = 
REMARK  1 active torsions:
REMARK  status: ('A' for Active; 'I' for Inactive)
REMARK    1  A    between atoms: C_4  and  P_5
REMARK                            x       y       z     vdW  Elec       q    Type
REMARK                         _______ _______ _______ _____ _____    ______ ____
ROOT
ATOM      1  C   UNL     1      -8.513  18.902  67.805  0.00  0.00    +0.035 C 
ATOM      2  C   UNL     1      -9.478  20.125  67.245  0.00  0.00    +0.150 C 
ATOM      3  C   UNL     1     -10.496  19.360  66.144  0.00  0.00    +0.193 C 
ATOM      4  O   UNL     1     -10.910  19.468  67.737  0.00  0.00    -0.346 OA
ENDROOT
BRANCH   3   5
ATOM      5  P   UNL     1     -10.060  17.506  65.999  0.00  0.00    +0.146 P 
ATOM      6  O   UNL     1     -11.050  17.130  64.656  0.00  0.00    -0.356 OA
ATOM      7  O   UNL     1     -10.815  16.865  67.383  0.00  0.00    -0.356 OA
ATOM      8  O   UNL     1      -8.775  17.056  65.740  0.00  0.00    -0.458 OA
ENDBRANCH   3   5
TORSDOF 1
ENDMDL
MODEL 6
REMARK VINA RESULT:      -3.6      7.377      8.352
REMARK  Name = 
REMARK  1 active torsions:
REMARK  status: ('A' for Active; 'I' for Inactive)
REMARK    1  A    between atoms: C_4  and  P_5
REMARK                            x       y       z     vdW  Elec       q    Type
REMARK                         _______ _______ _______ _____ _____    ______ ____
ROOT
ATOM      1  C   UNL     1     -10.910  14.371  67.184  0.00  0.00    +0.035 C 
ATOM      2  C   UNL     1      -9.852  14.654  65.942  0.00  0.00    +0.150 C 
ATOM      3  C   UNL     1     -10.513  13.799  64.651  0.00  0.00    +0.193 C 
ATOM      4  O   UNL     1     -10.945  15.366  64.931  0.00  0.00    -0.346 OA
ENDROOT
BRANCH   3   5
ATOM      5  P   UNL     1     -12.094  12.876  65.193  0.00  0.00    +0.146 P 
ATOM      6  O   UNL     1     -12.346  11.971  63.763  0.00  0.00    -0.356 OA
ATOM      7  O   UNL     1     -13.241  14.134  65.207  0.00  0.00    -0.356 OA
ATOM      8  O   UNL     1     -12.124  12.010  66.274  0.00  0.00    -0.458 OA
ENDBRANCH   3   5
TORSDOF 1
ENDMDL
MODEL 7
REMARK VINA RESULT:      -3.5      7.580      8.781
REMARK  Name = 
REMARK  1 active torsions:
REMARK  status: ('A' for Active; 'I' for Inactive)
REMARK    1  A    between atoms: C_4  and  P_5
REMARK                            x       y       z     vdW  Elec       q    Type
REMARK                         _______ _______ _______ _____ _____    ______ ____
ROOT
ATOM      1  C   UNL     1     -10.456  11.027  65.277  0.00  0.00    +0.035 C 
ATOM      2  C   UNL     1     -10.496  12.056  66.573  0.00  0.00    +0.150 C 
ATOM      3  C   UNL     1     -11.462  13.329  66.043  0.00  0.00    +0.193 C 
ATOM      4  O   UNL     1     -12.132  12.018  66.785  0.00  0.00    -0.346 OA
ENDROOT
BRANCH   3   5
ATOM      5  P   UNL     1     -12.010  13.051  64.235  0.00  0.00    +0.146 P 
ATOM      6  O   UNL     1     -12.503  14.651  63.884  0.00  0.00    -0.356 OA
ATOM      7  O   UNL     1     -13.418  12.118  64.440  0.00  0.00    -0.356 OA
ATOM      8  O   UNL     1     -11.137  12.631  63.243  0.00  0.00    -0.458 OA
ENDBRANCH   3   5
TORSDOF 1
ENDMDL
MODEL 8
REMARK VINA RESULT:      -3.5      8.339      8.880
REMARK  Name = 
REMARK  1 active torsions:
REMARK  status: ('A' for Active; 'I' for Inactive)
REMARK    1  A    between atoms: C_4  and  P_5
REMARK                            x       y       z     vdW  Elec       q    Type
REMARK                         _______ _______ _______ _____ _____    ______ ____
ROOT
ATOM      1  C   UNL     1     -10.135  10.778  65.115  0.00  0.00    +0.035 C 
ATOM      2  C   UNL     1     -10.625  10.977  63.547  0.00  0.00    +0.150 C 
ATOM      3  C   UNL     1     -11.668  12.297  63.618  0.00  0.00    +0.193 C 
ATOM      4  O   UNL     1     -10.052  12.515  63.371  0.00  0.00    -0.346 OA
ENDROOT
BRANCH   3   5
ATOM      5  P   UNL     1     -11.854  12.912  65.416  0.00  0.00    +0.146 P 
ATOM      6  O   UNL     1     -13.189  13.955  65.176  0.00  0.00    -0.356 OA
ATOM      7  O   UNL     1     -10.471  13.888  65.592  0.00  0.00    -0.356 OA
ATOM      8  O   UNL     1     -12.142  12.063  66.473  0.00  0.00    -0.458 OA
ENDBRANCH   3   5
TORSDOF 1
ENDMDL
MODEL 9
REMARK VINA RESULT:      -3.5      6.765      7.542
REMARK  Name = 
REMARK  1 active torsions:
REMARK  status: ('A' for Active; 'I' for Inactive)
REMARK    1  A    between atoms: C_4  and  P_5
REMARK                            x       y       z     vdW  Elec       q    Type
REMARK                         _______ _______ _______ _____ _____    ______ ____
ROOT
ATOM      1  C   UNL     1     -10.800  14.669  64.990  0.00  0.00    +0.035 C 
ATOM      2  C   UNL     1     -11.955  13.834  64.149  0.00  0.00    +0.150 C 
ATOM      3  C   UNL     1     -12.421  12.615  65.213  0.00  0.00    +0.193 C 
ATOM      4  O   UNL     1     -13.179  14.080  65.229  0.00  0.00    -0.346 OA
ENDROOT
BRANCH   3   5
ATOM      5  P   UNL     1     -11.405  12.706  66.828  0.00  0.00    +0.146 P 
ATOM      6  O   UNL     1     -11.977  11.266  67.552  0.00  0.00    -0.356 OA
ATOM      7  O   UNL     1     -12.149  14.009  67.631  0.00  0.00    -0.356 OA
ATOM      8  O   UNL     1     -10.020  12.689  66.843  0.00  0.00    -0.458 OA
ENDBRANCH   3   5
TORSDOF 1
ENDMDL
