MODEL 1
REMARK VINA RESULT:      -4.1      0.000      0.000
REMARK  Name = 
REMARK  10 active torsions:
REMARK  status: ('A' for Active; 'I' for Inactive)
REMARK    1  A    between atoms: C_2  and  C_3
REMARK    2  A    between atoms: C_3  and  N_4
REMARK    3  A    between atoms: N_4  and  C_5
REMARK    4  A    between atoms: C_5  and  C_6
REMARK    5  A    between atoms: C_6  and  N_7
REMARK    6  A    between atoms: N_7  and  C_8
REMARK    7  A    between atoms: C_8  and  C_9
REMARK    8  A    between atoms: C_9  and  N_10
REMARK    9  A    between atoms: N_10  and  C_11
REMARK   10  A    between atoms: C_11  and  C_12
REMARK                            x       y       z     vdW  Elec       q    Type
REMARK                         _______ _______ _______ _____ _____    ______ ____
ROOT
ATOM      1  N   UNL     1     -11.818  16.300  69.091  0.00  0.00    -0.215 NA
ENDROOT
BRANCH   1   2
ATOM      2  C   UNL     1     -10.915  16.506  67.968  0.00  0.00    +0.108 C 
BRANCH   2   3
ATOM      3  C   UNL     1     -10.130  17.784  68.094  0.00  0.00    +0.108 C 
BRANCH   3   4
ATOM      4  N   UNL     1     -10.897  18.902  67.606  0.00  0.00    -0.215 NA
BRANCH   4   5
ATOM      5  C   UNL     1     -10.097  20.062  67.306  0.00  0.00    +0.109 C 
BRANCH   5   7
ATOM      6  N   UNL     1      -7.666  20.424  67.347  0.00  0.00    -0.130 NA
ATOM      7  C   UNL     1      -8.756  19.727  66.714  0.00  0.00    +0.128 C 
ENDBRANCH   5   7
ENDBRANCH   4   5
ENDBRANCH   3   4
ENDBRANCH   2   3
ENDBRANCH   1   2
BRANCH   1   8
ATOM      8  C   UNL     1     -11.235  15.488  70.130  0.00  0.00    +0.108 C 
BRANCH   8   9
ATOM      9  C   UNL     1     -11.671  15.887  71.512  0.00  0.00    +0.108 C 
BRANCH   9  10
ATOM     10  N   UNL     1     -13.107  15.938  71.615  0.00  0.00    -0.215 NA
BRANCH  10  11
ATOM     11  C   UNL     1     -13.588  15.557  72.921  0.00  0.00    +0.109 C 
BRANCH  11  12
ATOM     12  C   UNL     1     -12.451  15.332  73.908  0.00  0.00    +0.128 C 
ATOM     13  N   UNL     1     -12.522  16.345  74.950  0.00  0.00    -0.130 NA
ENDBRANCH  11  12
ENDBRANCH  10  11
ENDBRANCH   9  10
ENDBRANCH   8   9
ENDBRANCH   1   8
TORSDOF 10
ENDMDL
MODEL 2
REMARK VINA RESULT:      -4.0      2.450      3.945
REMARK  Name = 
REMARK  10 active torsions:
REMARK  status: ('A' for Active; 'I' for Inactive)
REMARK    1  A    between atoms: C_2  and  C_3
REMARK    2  A    between atoms: C_3  and  N_4
REMARK    3  A    between atoms: N_4  and  C_5
REMARK    4  A    between atoms: C_5  and  C_6
REMARK    5  A    between atoms: C_6  and  N_7
REMARK    6  A    between atoms: N_7  and  C_8
REMARK    7  A    between atoms: C_8  and  C_9
REMARK    8  A    between atoms: C_9  and  N_10
REMARK    9  A    between atoms: N_10  and  C_11
REMARK   10  A    between atoms: C_11  and  C_12
REMARK                            x       y       z     vdW  Elec       q    Type
REMARK                         _______ _______ _______ _____ _____    ______ ____
ROOT
ATOM      1  N   UNL     1     -10.955  17.140  68.536  0.00  0.00    -0.215 NA
ENDROOT
BRANCH   1   2
ATOM      2  C   UNL     1     -10.497  17.574  67.225  0.00  0.00    +0.108 C 
BRANCH   2   3
ATOM      3  C   UNL     1      -9.772  16.483  66.483  0.00  0.00    +0.108 C 
BRANCH   3   4
ATOM      4  N   UNL     1     -10.395  16.234  65.209  0.00  0.00    -0.215 NA
BRANCH   4   5
ATOM      5  C   UNL     1     -10.803  14.864  65.026  0.00  0.00    +0.109 C 
BRANCH   5   7
ATOM      6  N   UNL     1     -12.950  13.670  65.113  0.00  0.00    -0.130 NA
ATOM      7  C   UNL     1     -12.196  14.722  64.481  0.00  0.00    +0.128 C 
ENDBRANCH   5   7
ENDBRANCH   4   5
ENDBRANCH   3   4
ENDBRANCH   2   3
ENDBRANCH   1   2
BRANCH   1   8
ATOM      8  C   UNL     1     -10.451  15.837  68.895  0.00  0.00    +0.108 C 
BRANCH   8   9
ATOM      9  C   UNL     1     -11.351  15.091  69.841  0.00  0.00    +0.108 C 
BRANCH   9  10
ATOM     10  N   UNL     1     -12.296  15.975  70.474  0.00  0.00    -0.215 NA
BRANCH  10  11
ATOM     11  C   UNL     1     -12.125  16.045  71.904  0.00  0.00    +0.109 C 
BRANCH  11  12
ATOM     12  C   UNL     1     -13.344  15.528  72.655  0.00  0.00    +0.128 C 
ATOM     13  N   UNL     1     -14.508  15.617  71.786  0.00  0.00    -0.130 NA
ENDBRANCH  11  12
ENDBRANCH  10  11
ENDBRANCH   9  10
ENDBRANCH   8   9
ENDBRANCH   1   8
TORSDOF 10
ENDMDL
MODEL 3
REMARK VINA RESULT:      -3.9      1.952      6.890
REMARK  Name = 
REMARK  10 active torsions:
REMARK  status: ('A' for Active; 'I' for Inactive)
REMARK    1  A    between atoms: C_2  and  C_3
REMARK    2  A    between atoms: C_3  and  N_4
REMARK    3  A    between atoms: N_4  and  C_5
REMARK    4  A    between atoms: C_5  and  C_6
REMARK    5  A    between atoms: C_6  and  N_7
REMARK    6  A    between atoms: N_7  and  C_8
REMARK    7  A    between atoms: C_8  and  C_9
REMARK    8  A    between atoms: C_9  and  N_10
REMARK    9  A    between atoms: N_10  and  C_11
REMARK   10  A    between atoms: C_11  and  C_12
REMARK                            x       y       z     vdW  Elec       q    Type
REMARK                         _______ _______ _______ _____ _____    ______ ____
ROOT
ATOM      1  N   UNL     1      -9.789  16.307  69.334  0.00  0.00    -0.215 NA
ENDROOT
BRANCH   1   2
ATOM      2  C   UNL     1     -10.700  15.240  69.718  0.00  0.00    +0.108 C 
BRANCH   2   3
ATOM      3  C   UNL     1     -12.027  15.767  70.195  0.00  0.00    +0.108 C 
BRANCH   3   4
ATOM      4  N   UNL     1     -11.928  16.242  71.551  0.00  0.00    -0.215 NA
BRANCH   4   5
ATOM      5  C   UNL     1     -11.793  15.187  72.523  0.00  0.00    +0.109 C 
BRANCH   5   7
ATOM      6  N   UNL     1     -12.549  16.396  74.525  0.00  0.00    -0.130 NA
ATOM      7  C   UNL     1     -12.786  15.278  73.647  0.00  0.00    +0.128 C 
ENDBRANCH   5   7
ENDBRANCH   4   5
ENDBRANCH   3   4
ENDBRANCH   2   3
ENDBRANCH   1   2
BRANCH   1   8
ATOM      8  C   UNL     1     -10.359  17.195  68.351  0.00  0.00    +0.108 C 
BRANCH   8   9
ATOM      9  C   UNL     1      -9.345  17.741  67.384  0.00  0.00    +0.108 C 
BRANCH   9  10
ATOM     10  N   UNL     1      -9.682  17.405  66.024  0.00  0.00    -0.215 NA
BRANCH  10  11
ATOM     11  C   UNL     1      -9.727  15.982  65.795  0.00  0.00    +0.109 C 
BRANCH  11  12
ATOM     12  C   UNL     1     -10.947  15.569  64.984  0.00  0.00    +0.128 C 
ATOM     13  N   UNL     1     -11.394  16.703  64.189  0.00  0.00    -0.130 NA
ENDBRANCH  11  12
ENDBRANCH  10  11
ENDBRANCH   9  10
ENDBRANCH   8   9
ENDBRANCH   1   8
TORSDOF 10
ENDMDL
MODEL 4
REMARK VINA RESULT:      -3.9      3.539      7.247
REMARK  Name = 
REMARK  10 active torsions:
REMARK  status: ('A' for Active; 'I' for Inactive)
REMARK    1  A    between atoms: C_2  and  C_3
REMARK    2  A    between atoms: C_3  and  N_4
REMARK    3  A    between atoms: N_4  and  C_5
REMARK    4  A    between atoms: C_5  and  C_6
REMARK    5  A    between atoms: C_6  and  N_7
REMARK    6  A    between atoms: N_7  and  C_8
REMARK    7  A    between atoms: C_8  and  C_9
REMARK    8  A    between atoms: C_9  and  N_10
REMARK    9  A    between atoms: N_10  and  C_11
REMARK   10  A    between atoms: C_11  and  C_12
REMARK                            x       y       z     vdW  Elec       q    Type
REMARK                         _______ _______ _______ _____ _____    ______ ____
ROOT
ATOM      1  N   UNL     1     -12.029  11.740  67.547  0.00  0.00    -0.215 NA
ENDROOT
BRANCH   1   2
ATOM      2  C   UNL     1     -11.325  12.157  68.750  0.00  0.00    +0.108 C 
BRANCH   2   3
ATOM      3  C   UNL     1     -11.139  13.649  68.814  0.00  0.00    +0.108 C 
BRANCH   3   4
ATOM      4  N   UNL     1     -12.304  14.283  69.376  0.00  0.00    -0.215 NA
BRANCH   4   5
ATOM      5  C   UNL     1     -12.285  14.349  70.815  0.00  0.00    +0.109 C 
BRANCH   5   7
ATOM      6  N   UNL     1     -14.317  15.498  71.586  0.00  0.00    -0.130 NA
ATOM      7  C   UNL     1     -12.897  15.606  71.365  0.00  0.00    +0.128 C 
ENDBRANCH   5   7
ENDBRANCH   4   5
ENDBRANCH   3   4
ENDBRANCH   2   3
ENDBRANCH   1   2
BRANCH   1   8
ATOM      8  C   UNL     1     -11.423  12.253  66.343  0.00  0.00    +0.108 C 
BRANCH   8   9
ATOM      9  C   UNL     1     -12.378  13.029  65.480  0.00  0.00    +0.108 C 
BRANCH   9  10
ATOM     10  N   UNL     1     -11.686  13.730  64.429  0.00  0.00    -0.215 NA
BRANCH  10  11
ATOM     11  C   UNL     1     -10.509  14.420  64.899  0.00  0.00    +0.109 C 
BRANCH  11  12
ATOM     12  C   UNL     1     -10.776  15.893  65.170  0.00  0.00    +0.128 C 
ATOM     13  N   UNL     1     -11.522  16.453  64.053  0.00  0.00    -0.130 NA
ENDBRANCH  11  12
ENDBRANCH  10  11
ENDBRANCH   9  10
ENDBRANCH   8   9
ENDBRANCH   1   8
TORSDOF 10
ENDMDL
MODEL 5
REMARK VINA RESULT:      -3.9      3.135      6.918
REMARK  Name = 
REMARK  10 active torsions:
REMARK  status: ('A' for Active; 'I' for Inactive)
REMARK    1  A    between atoms: C_2  and  C_3
REMARK    2  A    between atoms: C_3  and  N_4
REMARK    3  A    between atoms: N_4  and  C_5
REMARK    4  A    between atoms: C_5  and  C_6
REMARK    5  A    between atoms: C_6  and  N_7
REMARK    6  A    between atoms: N_7  and  C_8
REMARK    7  A    between atoms: C_8  and  C_9
REMARK    8  A    between atoms: C_9  and  N_10
REMARK    9  A    between atoms: N_10  and  C_11
REMARK   10  A    between atoms: C_11  and  C_12
REMARK                            x       y       z     vdW  Elec       q    Type
REMARK                         _______ _______ _______ _____ _____    ______ ____
ROOT
ATOM      1  N   UNL     1     -12.048  14.004  69.554  0.00  0.00    -0.215 NA
ENDROOT
BRANCH   1   2
ATOM      2  C   UNL     1     -11.834  15.416  69.831  0.00  0.00    +0.108 C 
BRANCH   2   3
ATOM      3  C   UNL     1     -11.839  15.714  71.307  0.00  0.00    +0.108 C 
BRANCH   3   4
ATOM      4  N   UNL     1     -13.184  15.924  71.779  0.00  0.00    -0.215 NA
BRANCH   4   5
ATOM      5  C   UNL     1     -13.475  15.236  73.012  0.00  0.00    +0.109 C 
BRANCH   5   7
ATOM      6  N   UNL     1     -12.479  16.367  74.954  0.00  0.00    -0.130 NA
ATOM      7  C   UNL     1     -12.349  15.290  74.006  0.00  0.00    +0.128 C 
ENDBRANCH   5   7
ENDBRANCH   4   5
ENDBRANCH   3   4
ENDBRANCH   2   3
ENDBRANCH   1   2
BRANCH   1   8
ATOM      8  C   UNL     1     -11.627  13.630  68.226  0.00  0.00    +0.108 C 
BRANCH   8   9
ATOM      9  C   UNL     1     -10.169  13.894  67.968  0.00  0.00    +0.108 C 
BRANCH   9  10
ATOM     10  N   UNL     1      -9.987  14.797  66.861  0.00  0.00    -0.215 NA
BRANCH  10  11
ATOM     11  C   UNL     1     -11.210  15.053  66.141  0.00  0.00    +0.109 C 
BRANCH  11  12
ATOM     12  C   UNL     1     -10.958  15.363  64.672  0.00  0.00    +0.128 C 
ATOM     13  N   UNL     1     -11.189  16.782  64.441  0.00  0.00    -0.130 NA
ENDBRANCH  11  12
ENDBRANCH  10  11
ENDBRANCH   9  10
ENDBRANCH   8   9
ENDBRANCH   1   8
TORSDOF 10
ENDMDL
MODEL 6
REMARK VINA RESULT:      -3.9      3.306      4.707
REMARK  Name = 
REMARK  10 active torsions:
REMARK  status: ('A' for Active; 'I' for Inactive)
REMARK    1  A    between atoms: C_2  and  C_3
REMARK    2  A    between atoms: C_3  and  N_4
REMARK    3  A    between atoms: N_4  and  C_5
REMARK    4  A    between atoms: C_5  and  C_6
REMARK    5  A    between atoms: C_6  and  N_7
REMARK    6  A    between atoms: N_7  and  C_8
REMARK    7  A    between atoms: C_8  and  C_9
REMARK    8  A    between atoms: C_9  and  N_10
REMARK    9  A    between atoms: N_10  and  C_11
REMARK   10  A    between atoms: C_11  and  C_12
REMARK                            x       y       z     vdW  Elec       q    Type
REMARK                         _______ _______ _______ _____ _____    ______ ____
ROOT
ATOM      1  N   UNL     1     -11.784  14.696  68.765  0.00  0.00    -0.215 NA
ENDROOT
BRANCH   1   2
ATOM      2  C   UNL     1     -10.982  14.818  67.557  0.00  0.00    +0.108 C 
BRANCH   2   3
ATOM      3  C   UNL     1     -11.649  14.189  66.363  0.00  0.00    +0.108 C 
BRANCH   3   4
ATOM      4  N   UNL     1     -10.836  14.347  65.184  0.00  0.00    -0.215 NA
BRANCH   4   5
ATOM      5  C   UNL     1     -10.762  13.158  64.374  0.00  0.00    +0.109 C 
BRANCH   5   7
ATOM      6  N   UNL     1     -12.886  12.265  63.518  0.00  0.00    -0.130 NA
ATOM      7  C   UNL     1     -11.916  12.218  64.582  0.00  0.00    +0.128 C 
ENDBRANCH   5   7
ENDBRANCH   4   5
ENDBRANCH   3   4
ENDBRANCH   2   3
ENDBRANCH   1   2
BRANCH   1   8
ATOM      8  C   UNL     1     -11.742  15.885  69.581  0.00  0.00    +0.108 C 
BRANCH   8   9
ATOM      9  C   UNL     1     -11.937  15.608  71.046  0.00  0.00    +0.108 C 
BRANCH   9  10
ATOM     10  N   UNL     1     -13.310  15.795  71.438  0.00  0.00    -0.215 NA
BRANCH  10  11
ATOM     11  C   UNL     1     -13.569  15.360  72.789  0.00  0.00    +0.109 C 
BRANCH  11  12
ATOM     12  C   UNL     1     -12.308  15.347  73.641  0.00  0.00    +0.128 C 
ATOM     13  N   UNL     1     -12.521  16.181  74.814  0.00  0.00    -0.130 NA
ENDBRANCH  11  12
ENDBRANCH  10  11
ENDBRANCH   9  10
ENDBRANCH   8   9
ENDBRANCH   1   8
TORSDOF 10
ENDMDL
MODEL 7
REMARK VINA RESULT:      -3.8      3.670      7.408
REMARK  Name = 
REMARK  10 active torsions:
REMARK  status: ('A' for Active; 'I' for Inactive)
REMARK    1  A    between atoms: C_2  and  C_3
REMARK    2  A    between atoms: C_3  and  N_4
REMARK    3  A    between atoms: N_4  and  C_5
REMARK    4  A    between atoms: C_5  and  C_6
REMARK    5  A    between atoms: C_6  and  N_7
REMARK    6  A    between atoms: N_7  and  C_8
REMARK    7  A    between atoms: C_8  and  C_9
REMARK    8  A    between atoms: C_9  and  N_10
REMARK    9  A    between atoms: N_10  and  C_11
REMARK   10  A    between atoms: C_11  and  C_12
REMARK                            x       y       z     vdW  Elec       q    Type
REMARK                         _______ _______ _______ _____ _____    ______ ____
ROOT
ATOM      1  N   UNL     1     -11.127  13.890  68.403  0.00  0.00    -0.215 NA
ENDROOT
BRANCH   1   2
ATOM      2  C   UNL     1     -11.618  15.191  68.834  0.00  0.00    +0.108 C 
BRANCH   2   3
ATOM      3  C   UNL     1     -11.691  15.303  70.334  0.00  0.00    +0.108 C 
BRANCH   3   4
ATOM      4  N   UNL     1     -12.951  15.872  70.740  0.00  0.00    -0.215 NA
BRANCH   4   5
ATOM      5  C   UNL     1     -13.739  14.993  71.567  0.00  0.00    +0.109 C 
BRANCH   5   7
ATOM      6  N   UNL     1     -13.142  16.102  73.678  0.00  0.00    -0.130 NA
ATOM      7  C   UNL     1     -13.208  14.851  72.965  0.00  0.00    +0.128 C 
ENDBRANCH   5   7
ENDBRANCH   4   5
ENDBRANCH   3   4
ENDBRANCH   2   3
ENDBRANCH   1   2
BRANCH   1   8
ATOM      8  C   UNL     1     -11.840  13.381  67.258  0.00  0.00    +0.108 C 
BRANCH   8   9
ATOM      9  C   UNL     1     -12.198  14.445  66.258  0.00  0.00    +0.108 C 
BRANCH   9  10
ATOM     10  N   UNL     1     -12.945  13.899  65.154  0.00  0.00    -0.215 NA
BRANCH  10  11
ATOM     11  C   UNL     1     -12.542  12.556  64.817  0.00  0.00    +0.109 C 
BRANCH  11  12
ATOM     12  C   UNL     1     -12.023  12.453  63.390  0.00  0.00    +0.128 C 
ATOM     13  N   UNL     1     -10.611  12.103  63.424  0.00  0.00    -0.130 NA
ENDBRANCH  11  12
ENDBRANCH  10  11
ENDBRANCH   9  10
ENDBRANCH   8   9
ENDBRANCH   1   8
TORSDOF 10
ENDMDL
MODEL 8
REMARK VINA RESULT:      -3.8      2.176      3.053
REMARK  Name = 
REMARK  10 active torsions:
REMARK  status: ('A' for Active; 'I' for Inactive)
REMARK    1  A    between atoms: C_2  and  C_3
REMARK    2  A    between atoms: C_3  and  N_4
REMARK    3  A    between atoms: N_4  and  C_5
REMARK    4  A    between atoms: C_5  and  C_6
REMARK    5  A    between atoms: C_6  and  N_7
REMARK    6  A    between atoms: N_7  and  C_8
REMARK    7  A    between atoms: C_8  and  C_9
REMARK    8  A    between atoms: C_9  and  N_10
REMARK    9  A    between atoms: N_10  and  C_11
REMARK   10  A    between atoms: C_11  and  C_12
REMARK                            x       y       z     vdW  Elec       q    Type
REMARK                         _______ _______ _______ _____ _____    ______ ____
ROOT
ATOM      1  N   UNL     1      -9.186  15.572  68.921  0.00  0.00    -0.215 NA
ENDROOT
BRANCH   1   2
ATOM      2  C   UNL     1      -9.359  16.939  68.453  0.00  0.00    +0.108 C 
BRANCH   2   3
ATOM      3  C   UNL     1      -8.325  17.326  67.430  0.00  0.00    +0.108 C 
BRANCH   3   4
ATOM      4  N   UNL     1      -8.839  17.151  66.095  0.00  0.00    -0.215 NA
BRANCH   4   5
ATOM      5  C   UNL     1     -10.278  17.107  66.035  0.00  0.00    +0.109 C 
BRANCH   5   7
ATOM      6  N   UNL     1     -11.526  16.497  64.006  0.00  0.00    -0.130 NA
ATOM      7  C   UNL     1     -10.808  16.009  65.156  0.00  0.00    +0.128 C 
ENDBRANCH   5   7
ENDBRANCH   4   5
ENDBRANCH   3   4
ENDBRANCH   2   3
ENDBRANCH   1   2
BRANCH   1   8
ATOM      8  C   UNL     1     -10.418  14.984  69.385  0.00  0.00    +0.108 C 
BRANCH   8   9
ATOM      9  C   UNL     1     -11.616  15.867  69.170  0.00  0.00    +0.108 C 
BRANCH   9  10
ATOM     10  N   UNL     1     -12.468  15.888  70.332  0.00  0.00    -0.215 NA
BRANCH  10  11
ATOM     11  C   UNL     1     -11.735  15.744  71.565  0.00  0.00    +0.109 C 
BRANCH  11  12
ATOM     12  C   UNL     1     -12.618  15.955  72.787  0.00  0.00    +0.128 C 
ATOM     13  N   UNL     1     -14.013  15.834  72.389  0.00  0.00    -0.130 NA
ENDBRANCH  11  12
ENDBRANCH  10  11
ENDBRANCH   9  10
ENDBRANCH   8   9
ENDBRANCH   1   8
TORSDOF 10
ENDMDL
MODEL 9
REMARK VINA RESULT:      -3.8      4.498      6.321
REMARK  Name = 
REMARK  10 active torsions:
REMARK  status: ('A' for Active; 'I' for Inactive)
REMARK    1  A    between atoms: C_2  and  C_3
REMARK    2  A    between atoms: C_3  and  N_4
REMARK    3  A    between atoms: N_4  and  C_5
REMARK    4  A    between atoms: C_5  and  C_6
REMARK    5  A    between atoms: C_6  and  N_7
REMARK    6  A    between atoms: N_7  and  C_8
REMARK    7  A    between atoms: C_8  and  C_9
REMARK    8  A    between atoms: C_9  and  N_10
REMARK    9  A    between atoms: N_10  and  C_11
REMARK   10  A    between atoms: C_11  and  C_12
REMARK                            x       y       z     vdW  Elec       q    Type
REMARK                         _______ _______ _______ _____ _____    ______ ____
ROOT
ATOM      1  N   UNL     1     -10.612  14.378  66.467  0.00  0.00    -0.215 NA
ENDROOT
BRANCH   1   2
ATOM      2  C   UNL     1     -10.425  15.798  66.727  0.00  0.00    +0.108 C 
BRANCH   2   3
ATOM      3  C   UNL     1      -9.059  16.279  66.315  0.00  0.00    +0.108 C 
BRANCH   3   4
ATOM      4  N   UNL     1      -9.109  17.660  65.907  0.00  0.00    -0.215 NA
BRANCH   4   5
ATOM      5  C   UNL     1     -10.434  18.223  65.943  0.00  0.00    +0.109 C 
BRANCH   5   7
ATOM      6  N   UNL     1     -10.516  19.518  68.032  0.00  0.00    -0.130 NA
ATOM      7  C   UNL     1     -10.491  19.578  66.592  0.00  0.00    +0.128 C 
ENDBRANCH   5   7
ENDBRANCH   4   5
ENDBRANCH   3   4
ENDBRANCH   2   3
ENDBRANCH   1   2
BRANCH   1   8
ATOM      8  C   UNL     1     -11.973  13.950  66.676  0.00  0.00    +0.108 C 
BRANCH   8   9
ATOM      9  C   UNL     1     -12.785  13.910  65.412  0.00  0.00    +0.108 C 
BRANCH   9  10
ATOM     10  N   UNL     1     -12.795  12.589  64.836  0.00  0.00    -0.215 NA
BRANCH  10  11
ATOM     11  C   UNL     1     -12.227  12.554  63.510  0.00  0.00    +0.109 C 
BRANCH  11  12
ATOM     12  C   UNL     1     -10.788  12.060  63.514  0.00  0.00    +0.128 C 
ATOM     13  N   UNL     1     -10.611  11.126  64.616  0.00  0.00    -0.130 NA
ENDBRANCH  11  12
ENDBRANCH  10  11
ENDBRANCH   9  10
ENDBRANCH   8   9
ENDBRANCH   1   8
TORSDOF 10
ENDMDL
