MODEL 1
REMARK VINA RESULT:      -6.1      0.000      0.000
REMARK  Name = 
REMARK  1 active torsions:
REMARK  status: ('A' for Active; 'I' for Inactive)
REMARK    1  A    between atoms: C_3  and  N_4
REMARK                            x       y       z     vdW  Elec       q    Type
REMARK                         _______ _______ _______ _____ _____    ______ ____
ROOT
ATOM      1 BR   UNL     1     -11.616  13.939  67.933  0.00  0.00    -0.044 Br
ATOM      2  C   UNL     1     -11.801  12.953  69.567  0.00  0.00    +0.088 A 
ATOM      3  C   UNL     1     -12.524  13.587  70.571  0.00  0.00    +0.108 A 
ATOM      4  C   UNL     1     -13.116  12.866  71.601  0.00  0.00    +0.100 A 
ATOM      5  N   UNL     1     -13.910  13.467  72.515  0.00  0.00    -0.241 NA
ATOM      6  C   UNL     1     -14.177  14.772  72.276  0.00  0.00    +0.119 A 
ATOM      7  C   UNL     1     -13.316  15.567  71.528  0.00  0.00    +0.119 A 
ATOM      8  C   UNL     1     -12.952  11.508  71.617  0.00  0.00    +0.024 A 
ATOM      9  C   UNL     1     -12.233  10.888  70.617  0.00  0.00    +0.039 A 
ATOM     10  N   UNL     1     -12.395  14.916  70.777  0.00  0.00    -0.240 NA
ATOM     11  C   UNL     1     -11.747  11.566  69.506  0.00  0.00    +0.166 A 
ENDROOT
BRANCH  11  12
ATOM     12  N   UNL     1     -11.844  10.881  68.254  0.00  0.00    -0.070 NA
ATOM     13  C   UNL     1     -10.869  10.262  67.702  0.00  0.00    +0.439 C 
ATOM     14  N   UNL     1     -10.612   8.853  67.753  0.00  0.00    -0.060 NA
ATOM     15  C   UNL     1     -10.129   8.386  66.466  0.00  0.00    +0.251 C 
ATOM     16  C   UNL     1      -9.950   9.616  65.617  0.00  0.00    +0.251 C 
ATOM     17  N   UNL     1     -10.225  10.706  66.522  0.00  0.00    -0.060 NA
ENDBRANCH  11  12
TORSDOF 1
ENDMDL
MODEL 2
REMARK VINA RESULT:      -6.0      2.553      6.492
REMARK  Name = 
REMARK  1 active torsions:
REMARK  status: ('A' for Active; 'I' for Inactive)
REMARK    1  A    between atoms: C_3  and  N_4
REMARK                            x       y       z     vdW  Elec       q    Type
REMARK                         _______ _______ _______ _____ _____    ______ ____
ROOT
ATOM      1 BR   UNL     1     -11.994  11.108  69.242  0.00  0.00    -0.044 Br
ATOM      2  C   UNL     1     -11.413  12.809  68.576  0.00  0.00    +0.088 A 
ATOM      3  C   UNL     1     -11.584  13.008  67.211  0.00  0.00    +0.108 A 
ATOM      4  C   UNL     1     -11.639  14.286  66.668  0.00  0.00    +0.100 A 
ATOM      5  N   UNL     1     -11.917  14.484  65.360  0.00  0.00    -0.241 NA
ATOM      6  C   UNL     1     -12.251  13.371  64.668  0.00  0.00    +0.119 A 
ATOM      7  C   UNL     1     -11.826  12.108  65.066  0.00  0.00    +0.119 A 
ATOM      8  C   UNL     1     -11.499  15.354  67.512  0.00  0.00    +0.024 A 
ATOM      9  C   UNL     1     -11.330  15.146  68.864  0.00  0.00    +0.039 A 
ATOM     10  N   UNL     1     -11.362  12.004  66.335  0.00  0.00    -0.240 NA
ATOM     11  C   UNL     1     -11.406  13.888  69.450  0.00  0.00    +0.166 A 
ENDROOT
BRANCH  11  12
ATOM     12  N   UNL     1     -12.076  13.817  70.712  0.00  0.00    -0.070 NA
ATOM     13  C   UNL     1     -12.374  14.840  71.421  0.00  0.00    +0.439 C 
ATOM     14  N   UNL     1     -13.643  15.502  71.477  0.00  0.00    -0.060 NA
ATOM     15  C   UNL     1     -13.934  15.910  72.840  0.00  0.00    +0.251 C 
ATOM     16  C   UNL     1     -12.698  15.599  73.640  0.00  0.00    +0.251 C 
ATOM     17  N   UNL     1     -11.747  15.151  72.651  0.00  0.00    -0.060 NA
ENDBRANCH  11  12
TORSDOF 1
ENDMDL
MODEL 3
REMARK VINA RESULT:      -6.0      3.950      6.251
REMARK  Name = 
REMARK  1 active torsions:
REMARK  status: ('A' for Active; 'I' for Inactive)
REMARK    1  A    between atoms: C_3  and  N_4
REMARK                            x       y       z     vdW  Elec       q    Type
REMARK                         _______ _______ _______ _____ _____    ______ ____
ROOT
ATOM      1 BR   UNL     1     -10.200  14.114  65.900  0.00  0.00    -0.044 Br
ATOM      2  C   UNL     1     -11.290  14.407  67.450  0.00  0.00    +0.088 A 
ATOM      3  C   UNL     1     -11.558  13.279  68.216  0.00  0.00    +0.108 A 
ATOM      4  C   UNL     1     -11.929  13.383  69.551  0.00  0.00    +0.100 A 
ATOM      5  N   UNL     1     -12.081  12.286  70.327  0.00  0.00    -0.241 NA
ATOM      6  C   UNL     1     -11.730  11.116  69.745  0.00  0.00    +0.119 A 
ATOM      7  C   UNL     1     -11.749  10.953  68.365  0.00  0.00    +0.119 A 
ATOM      8  C   UNL     1     -12.046  14.633  70.094  0.00  0.00    +0.024 A 
ATOM      9  C   UNL     1     -11.777  15.746  69.327  0.00  0.00    +0.039 A 
ATOM     10  N   UNL     1     -11.803  12.089  67.626  0.00  0.00    -0.240 NA
ATOM     11  C   UNL     1     -11.276  15.668  68.033  0.00  0.00    +0.166 A 
ENDROOT
BRANCH  11  12
ATOM     12  N   UNL     1     -10.276  16.629  67.683  0.00  0.00    -0.070 NA
ATOM     13  C   UNL     1     -10.535  17.832  67.329  0.00  0.00    +0.439 C 
ATOM     14  N   UNL     1     -10.488  18.997  68.162  0.00  0.00    -0.060 NA
ATOM     15  C   UNL     1      -9.942  20.119  67.420  0.00  0.00    +0.251 C 
ATOM     16  C   UNL     1      -9.775  19.640  66.003  0.00  0.00    +0.251 C 
ATOM     17  N   UNL     1     -10.355  18.318  66.013  0.00  0.00    -0.060 NA
ENDBRANCH  11  12
TORSDOF 1
ENDMDL
MODEL 4
REMARK VINA RESULT:      -5.9      2.497      2.714
REMARK  Name = 
REMARK  1 active torsions:
REMARK  status: ('A' for Active; 'I' for Inactive)
REMARK    1  A    between atoms: C_3  and  N_4
REMARK                            x       y       z     vdW  Elec       q    Type
REMARK                         _______ _______ _______ _____ _____    ______ ____
ROOT
ATOM      1 BR   UNL     1     -10.830  16.705  68.702  0.00  0.00    -0.044 Br
ATOM      2  C   UNL     1     -11.065  14.941  69.414  0.00  0.00    +0.088 A 
ATOM      3  C   UNL     1     -11.768  14.866  70.611  0.00  0.00    +0.108 A 
ATOM      4  C   UNL     1     -12.395  13.692  71.009  0.00  0.00    +0.100 A 
ATOM      5  N   UNL     1     -13.171  13.649  72.115  0.00  0.00    -0.241 NA
ATOM      6  C   UNL     1     -13.384  14.842  72.717  0.00  0.00    +0.119 A 
ATOM      7  C   UNL     1     -12.487  15.896  72.583  0.00  0.00    +0.119 A 
ATOM      8  C   UNL     1     -12.286  12.594  70.200  0.00  0.00    +0.024 A 
ATOM      9  C   UNL     1     -11.587  12.678  69.015  0.00  0.00    +0.039 A 
ATOM     10  N   UNL     1     -11.587  15.796  71.574  0.00  0.00    -0.240 NA
ATOM     11  C   UNL     1     -11.066  13.870  68.528  0.00  0.00    +0.166 A 
ENDROOT
BRANCH  11  12
ATOM     12  N   UNL     1     -11.183  14.083  67.118  0.00  0.00    -0.070 NA
ATOM     13  C   UNL     1     -11.211  13.139  66.254  0.00  0.00    +0.439 C 
ATOM     14  N   UNL     1     -12.377  12.573  65.644  0.00  0.00    -0.060 NA
ATOM     15  C   UNL     1     -12.120  12.290  64.243  0.00  0.00    +0.251 C 
ATOM     16  C   UNL     1     -10.659  12.575  64.022  0.00  0.00    +0.251 C 
ATOM     17  N   UNL     1     -10.160  12.880  65.341  0.00  0.00    -0.060 NA
ENDBRANCH  11  12
TORSDOF 1
ENDMDL
MODEL 5
REMARK VINA RESULT:      -5.8      3.237      6.782
REMARK  Name = 
REMARK  1 active torsions:
REMARK  status: ('A' for Active; 'I' for Inactive)
REMARK    1  A    between atoms: C_3  and  N_4
REMARK                            x       y       z     vdW  Elec       q    Type
REMARK                         _______ _______ _______ _____ _____    ______ ____
ROOT
ATOM      1 BR   UNL     1      -9.381  11.987  67.627  0.00  0.00    -0.044 Br
ATOM      2  C   UNL     1      -9.954  13.362  66.420  0.00  0.00    +0.088 A 
ATOM      3  C   UNL     1     -10.622  12.921  65.283  0.00  0.00    +0.108 A 
ATOM      4  C   UNL     1     -11.466  13.762  64.568  0.00  0.00    +0.100 A 
ATOM      5  N   UNL     1     -12.201  13.304  63.530  0.00  0.00    -0.241 NA
ATOM      6  C   UNL     1     -12.145  11.968  63.330  0.00  0.00    +0.119 A 
ATOM      7  C   UNL     1     -11.054  11.213  63.746  0.00  0.00    +0.119 A 
ATOM      8  C   UNL     1     -11.609  15.052  64.999  0.00  0.00    +0.024 A 
ATOM      9  C   UNL     1     -10.943  15.480  66.127  0.00  0.00    +0.039 A 
ATOM     10  N   UNL     1     -10.225  11.799  64.643  0.00  0.00    -0.240 NA
ATOM     11  C   UNL     1     -10.202  14.627  66.936  0.00  0.00    +0.166 A 
ENDROOT
BRANCH  11  12
ATOM     12  N   UNL     1     -10.313  14.837  68.347  0.00  0.00    -0.070 NA
ATOM     13  C   UNL     1     -11.424  14.833  68.984  0.00  0.00    +0.439 C 
ATOM     14  N   UNL     1     -11.981  13.740  69.723  0.00  0.00    -0.060 NA
ATOM     15  C   UNL     1     -12.611  14.227  70.937  0.00  0.00    +0.251 C 
ATOM     16  C   UNL     1     -12.552  15.729  70.862  0.00  0.00    +0.251 C 
ATOM     17  N   UNL     1     -12.005  15.991  69.552  0.00  0.00    -0.060 NA
ENDBRANCH  11  12
TORSDOF 1
ENDMDL
MODEL 6
REMARK VINA RESULT:      -5.7      4.590      6.916
REMARK  Name = 
REMARK  1 active torsions:
REMARK  status: ('A' for Active; 'I' for Inactive)
REMARK    1  A    between atoms: C_3  and  N_4
REMARK                            x       y       z     vdW  Elec       q    Type
REMARK                         _______ _______ _______ _____ _____    ______ ____
ROOT
ATOM      1 BR   UNL     1      -7.565  14.676  67.627  0.00  0.00    -0.044 Br
ATOM      2  C   UNL     1      -9.084  14.243  66.540  0.00  0.00    +0.088 A 
ATOM      3  C   UNL     1      -9.895  13.223  67.024  0.00  0.00    +0.108 A 
ATOM      4  C   UNL     1     -11.219  13.099  66.620  0.00  0.00    +0.100 A 
ATOM      5  N   UNL     1     -12.039  12.177  67.173  0.00  0.00    -0.241 NA
ATOM      6  C   UNL     1     -11.515  11.488  68.212  0.00  0.00    +0.119 A 
ATOM      7  C   UNL     1     -10.143  11.316  68.355  0.00  0.00    +0.119 A 
ATOM      8  C   UNL     1     -11.705  13.998  65.712  0.00  0.00    +0.024 A 
ATOM      9  C   UNL     1     -10.893  15.006  65.238  0.00  0.00    +0.039 A 
ATOM     10  N   UNL     1      -9.354  12.137  67.619  0.00  0.00    -0.240 NA
ATOM     11  C   UNL     1      -9.611  15.235  65.724  0.00  0.00    +0.166 A 
ENDROOT
BRANCH  11  12
ATOM     12  N   UNL     1      -9.233  16.604  65.893  0.00  0.00    -0.070 NA
ATOM     13  C   UNL     1     -10.000  17.500  66.392  0.00  0.00    +0.439 C 
ATOM     14  N   UNL     1      -9.996  17.971  67.745  0.00  0.00    -0.060 NA
ATOM     15  C   UNL     1     -10.219  19.405  67.775  0.00  0.00    +0.251 C 
ATOM     16  C   UNL     1     -10.515  19.810  66.356  0.00  0.00    +0.251 C 
ATOM     17  N   UNL     1     -10.562  18.558  65.640  0.00  0.00    -0.060 NA
ENDBRANCH  11  12
TORSDOF 1
ENDMDL
MODEL 7
REMARK VINA RESULT:      -5.7      4.021      5.149
REMARK  Name = 
REMARK  1 active torsions:
REMARK  status: ('A' for Active; 'I' for Inactive)
REMARK    1  A    between atoms: C_3  and  N_4
REMARK                            x       y       z     vdW  Elec       q    Type
REMARK                         _______ _______ _______ _____ _____    ______ ____
ROOT
ATOM      1 BR   UNL     1     -11.437  15.893  70.292  0.00  0.00    -0.044 Br
ATOM      2  C   UNL     1     -11.425  15.916  68.375  0.00  0.00    +0.088 A 
ATOM      3  C   UNL     1     -10.628  16.895  67.793  0.00  0.00    +0.108 A 
ATOM      4  C   UNL     1     -10.166  16.770  66.488  0.00  0.00    +0.100 A 
ATOM      5  N   UNL     1      -9.302  17.665  65.959  0.00  0.00    -0.241 NA
ATOM      6  C   UNL     1      -8.838  18.598  66.822  0.00  0.00    +0.119 A 
ATOM      7  C   UNL     1      -9.559  18.969  67.952  0.00  0.00    +0.119 A 
ATOM      8  C   UNL     1     -10.533  15.661  65.776  0.00  0.00    +0.024 A 
ATOM      9  C   UNL     1     -11.322  14.695  66.362  0.00  0.00    +0.039 A 
ATOM     10  N   UNL     1     -10.558  18.134  68.328  0.00  0.00    -0.240 NA
ATOM     11  C   UNL     1     -11.686  14.729  67.703  0.00  0.00    +0.166 A 
ENDROOT
BRANCH  11  12
ATOM     12  N   UNL     1     -11.677  13.476  68.393  0.00  0.00    -0.070 NA
ATOM     13  C   UNL     1     -11.069  12.432  67.969  0.00  0.00    +0.439 C 
ATOM     14  N   UNL     1      -9.777  11.969  68.379  0.00  0.00    -0.060 NA
ATOM     15  C   UNL     1      -9.775  10.521  68.481  0.00  0.00    +0.251 C 
ATOM     16  C   UNL     1     -11.113  10.065  67.965  0.00  0.00    +0.251 C 
ATOM     17  N   UNL     1     -11.734  11.278  67.490  0.00  0.00    -0.060 NA
ENDBRANCH  11  12
TORSDOF 1
ENDMDL
MODEL 8
REMARK VINA RESULT:      -5.6      3.609      4.695
REMARK  Name = 
REMARK  1 active torsions:
REMARK  status: ('A' for Active; 'I' for Inactive)
REMARK    1  A    between atoms: C_3  and  N_4
REMARK                            x       y       z     vdW  Elec       q    Type
REMARK                         _______ _______ _______ _____ _____    ______ ____
ROOT
ATOM      1 BR   UNL     1     -11.883  13.785  69.239  0.00  0.00    -0.044 Br
ATOM      2  C   UNL     1     -11.796  14.542  67.480  0.00  0.00    +0.088 A 
ATOM      3  C   UNL     1     -11.061  15.717  67.369  0.00  0.00    +0.108 A 
ATOM      4  C   UNL     1     -10.538  16.130  66.149  0.00  0.00    +0.100 A 
ATOM      5  N   UNL     1      -9.731  17.211  66.060  0.00  0.00    -0.241 NA
ATOM      6  C   UNL     1      -9.382  17.768  67.242  0.00  0.00    +0.119 A 
ATOM      7  C   UNL     1     -10.175  17.632  68.375  0.00  0.00    +0.119 A 
ATOM      8  C   UNL     1     -10.782  15.359  65.046  0.00  0.00    +0.024 A 
ATOM      9  C   UNL     1     -11.512  14.196  65.166  0.00  0.00    +0.039 A 
ATOM     10  N   UNL     1     -11.116  16.657  68.337  0.00  0.00    -0.240 NA
ATOM     11  C   UNL     1     -11.931  13.690  66.391  0.00  0.00    +0.166 A 
ENDROOT
BRANCH  11  12
ATOM     12  N   UNL     1     -11.845  12.271  66.553  0.00  0.00    -0.070 NA
ATOM     13  C   UNL     1     -10.765  11.599  66.400  0.00  0.00    +0.439 C 
ATOM     14  N   UNL     1      -9.882  11.154  67.436  0.00  0.00    -0.060 NA
ATOM     15  C   UNL     1      -9.391   9.821  67.136  0.00  0.00    +0.251 C 
ATOM     16  C   UNL     1      -9.902   9.490  65.759  0.00  0.00    +0.251 C 
ATOM     17  N   UNL     1     -10.543  10.708  65.324  0.00  0.00    -0.060 NA
ENDBRANCH  11  12
TORSDOF 1
ENDMDL
MODEL 9
REMARK VINA RESULT:      -5.5      2.256      3.338
REMARK  Name = 
REMARK  1 active torsions:
REMARK  status: ('A' for Active; 'I' for Inactive)
REMARK    1  A    between atoms: C_3  and  N_4
REMARK                            x       y       z     vdW  Elec       q    Type
REMARK                         _______ _______ _______ _____ _____    ______ ____
ROOT
ATOM      1 BR   UNL     1     -11.477  11.455  69.216  0.00  0.00    -0.044 Br
ATOM      2  C   UNL     1     -11.805  13.281  68.732  0.00  0.00    +0.088 A 
ATOM      3  C   UNL     1     -11.952  14.166  69.794  0.00  0.00    +0.108 A 
ATOM      4  C   UNL     1     -11.748  15.531  69.631  0.00  0.00    +0.100 A 
ATOM      5  N   UNL     1     -11.782  16.377  70.685  0.00  0.00    -0.241 NA
ATOM      6  C   UNL     1     -11.901  15.786  71.895  0.00  0.00    +0.119 A 
ATOM      7  C   UNL     1     -12.486  14.533  72.040  0.00  0.00    +0.119 A 
ATOM      8  C   UNL     1     -11.417  15.991  68.387  0.00  0.00    +0.024 A 
ATOM      9  C   UNL     1     -11.274  15.106  67.340  0.00  0.00    +0.039 A 
ATOM     10  N   UNL     1     -12.617  13.796  70.910  0.00  0.00    -0.240 NA
ATOM     11  C   UNL     1     -11.339  13.728  67.502  0.00  0.00    +0.166 A 
ENDROOT
BRANCH  11  12
ATOM     12  N   UNL     1     -10.399  12.956  66.748  0.00  0.00    -0.070 NA
ATOM     13  C   UNL     1     -10.681  12.366  65.647  0.00  0.00    +0.439 C 
ATOM     14  N   UNL     1     -10.413  12.849  64.325  0.00  0.00    -0.060 NA
ATOM     15  C   UNL     1      -9.994  11.755  63.469  0.00  0.00    +0.251 C 
ATOM     16  C   UNL     1     -10.148  10.502  64.288  0.00  0.00    +0.251 C 
ATOM     17  N   UNL     1     -10.763  10.960  65.511  0.00  0.00    -0.060 NA
ENDBRANCH  11  12
TORSDOF 1
ENDMDL
