MODEL 1
REMARK VINA RESULT:      -8.2      0.000      0.000
REMARK  Name = 
REMARK  15 active torsions:
REMARK  status: ('A' for Active; 'I' for Inactive)
REMARK    1  A    between atoms: O_2  and  C_3
REMARK    2  A    between atoms: C_8  and  O_9
REMARK    3  A    between atoms: O_9  and  C_10
REMARK    4  A    between atoms: C_14  and  O_15
REMARK    5  A    between atoms: O_15  and  C_16
REMARK    6  A    between atoms: C_16  and  C_18
REMARK    7  A    between atoms: C_27  and  O_28
REMARK    8  A    between atoms: O_28  and  C_29
REMARK    9  A    between atoms: C_29  and  C_31
REMARK   10  A    between atoms: C_31  and  C_33
REMARK   11  A    between atoms: C_33  and  N_34
REMARK   12  A    between atoms: C_33  and  C_42
REMARK   13  A    between atoms: C_35  and  O_37
REMARK   14  A    between atoms: O_37  and  C_38
REMARK   15  A    between atoms: C_51  and  O_52
REMARK                            x       y       z     vdW  Elec       q    Type
REMARK                         _______ _______ _______ _____ _____    ______ ____
ROOT
ATOM      1  C   UNL     1      -5.774  18.906  69.790  0.00  0.00    +0.125 C 
ATOM      2  C   UNL     1      -6.048  17.443  69.601  0.00  0.00    +0.086 C 
ATOM      3  C   UNL     1      -7.352  16.995  69.013  0.00  0.00    +0.093 C 
ATOM      4  C   UNL     1      -7.967  15.666  68.682  0.00  0.00    +0.201 C 
ATOM      5  C   UNL     1      -7.530  14.237  68.804  0.00  0.00    +0.170 C 
ATOM      6  C   UNL     1      -6.299  13.543  69.307  0.00  0.00    +0.047 C 
ATOM      7  C   UNL     1      -6.935  12.226  68.968  0.00  0.00    +0.007 C 
ATOM      8  C   UNL     1      -5.964  12.505  69.403  0.00  0.00    +0.007 C 
ATOM      9  C   UNL     1      -4.995  13.991  69.895  0.00  0.00    -0.013 C 
ATOM     10  C   UNL     1      -4.381  15.319  70.225  0.00  0.00    +0.190 C 
ATOM     11  C   UNL     1      -5.091  12.498  69.782  0.00  0.00    -0.010 C 
ATOM     12  C   UNL     1      -3.950  11.637  70.238  0.00  0.00    +0.029 C 
ATOM     13  C   UNL     1      -6.327  11.867  69.215  0.00  0.00    +0.189 C 
ATOM     14  C   UNL     1      -7.467  12.729  68.760  0.00  0.00    +0.082 C 
ATOM     15  O   UNL     1      -8.568  13.275  68.307  0.00  0.00    -0.222 OA
ATOM     16  C   UNL     1      -8.383  18.009  68.613  0.00  0.00    +0.191 C 
ATOM     17  C   UNL     1      -8.109  19.471  68.801  0.00  0.00    +0.157 C 
ATOM     18  O   UNL     1      -9.457  19.798  68.231  0.00  0.00    -0.349 OA
ATOM     19  C   UNL     1      -9.731  18.335  68.042  0.00  0.00    +0.185 C 
ATOM     20  C   UNL     1      -4.811  18.074  70.169  0.00  0.00    +0.010 C 
ATOM     21  C   UNL     1      -4.817  16.749  70.104  0.00  0.00    +0.183 C 
ATOM     22  O   UNL     1      -3.779  17.711  70.601  0.00  0.00    -0.293 OA
ATOM     23  C   UNL     1      -6.804  19.920  69.390  0.00  0.00    +0.063 C 
ENDROOT
BRANCH  10  24
ATOM     24  O   UNL     1      -3.008  15.186  70.816  0.00  0.00    -0.342 OA
ATOM     25  C   UNL     1      -2.802  14.375  72.061  0.00  0.00    +0.175 C 
ENDBRANCH  10  24
BRANCH   1  27
ATOM     26  C   UNL     1      -4.449  20.085  71.689  0.00  0.00    +0.174 C 
ATOM     27  O   UNL     1      -4.469  19.354  70.379  0.00  0.00    -0.353 OA
ENDBRANCH   1  27
BRANCH  13  28
ATOM     28  O   UNL     1      -6.423  10.374  69.102  0.00  0.00    -0.446 OA
BRANCH  28  29
ATOM     29  C   UNL     1      -7.174   9.591  70.137  0.00  0.00    +0.350 C 
ATOM     30  O   UNL     1      -6.678   9.550  71.552  0.00  0.00    -0.247 OA
BRANCH  29  31
ATOM     31  C   UNL     1      -8.420   8.848  69.758  0.00  0.00    +0.274 C 
ATOM     32  O   UNL     1      -8.510   7.368  69.982  0.00  0.00    -0.209 OA
BRANCH  31  33
ATOM     33  C   UNL     1      -9.579   9.586  69.153  0.00  0.00    +0.162 C 
BRANCH  33  34
ATOM     34  C   UNL     1     -10.754   9.965  70.003  0.00  0.00    +0.001 A 
ATOM     35  C   UNL     1     -11.348   8.964  70.950  0.00  0.00    -0.003 A 
ATOM     36  C   UNL     1     -12.524   9.343  71.801  0.00  0.00    -0.000 A 
ATOM     37  C   UNL     1     -13.106  10.722  71.706  0.00  0.00    -0.000 A 
ATOM     38  C   UNL     1     -12.512  11.723  70.759  0.00  0.00    -0.000 A 
ATOM     39  C   UNL     1     -11.336  11.343  69.908  0.00  0.00    -0.003 A 
ENDBRANCH  33  34
BRANCH  33  40
ATOM     40  N   UNL     1      -9.560   9.944  67.697  0.00  0.00    -0.163 NA
ATOM     41  C   UNL     1     -10.122   8.991  66.683  0.00  0.00    +0.421 C 
ATOM     42  O   UNL     1     -10.702   7.681  67.126  0.00  0.00    -0.225 OA
BRANCH  41  43
ATOM     43  O   UNL     1     -10.104   9.349  65.226  0.00  0.00    -0.441 OA
BRANCH  43  44
ATOM     44  C   UNL     1      -8.802   9.636  64.540  0.00  0.00    +0.138 C 
ATOM     45  C   UNL     1      -7.500   9.923  63.853  0.00  0.00    +0.044 C 
ATOM     46  C   UNL     1      -9.269  11.029  64.240  0.00  0.00    +0.044 C 
ATOM     47  C   UNL     1      -8.336   8.242  64.840  0.00  0.00    +0.044 C 
ENDBRANCH  43  44
ENDBRANCH  41  43
ENDBRANCH  33  40
ENDBRANCH  31  33
ENDBRANCH  29  31
ENDBRANCH  28  29
ENDBRANCH  13  28
BRANCH  16  48
ATOM     48  O   UNL     1      -8.997  16.681  68.283  0.00  0.00    -0.451 OA
BRANCH  48  49
ATOM     49  C   UNL     1     -10.327  16.303  68.866  0.00  0.00    +0.317 C 
ATOM     50  O   UNL     1     -11.592  16.791  68.226  0.00  0.00    -0.250 OA
ATOM     51  C   UNL     1     -10.391  15.438  70.089  0.00  0.00    +0.121 C 
ENDBRANCH  48  49
ENDBRANCH  16  48
BRANCH   4  52
ATOM     52  O   UNL     1      -9.339  15.799  68.092  0.00  0.00    -0.446 OA
BRANCH  52  53
ATOM     53  C   UNL     1      -9.537  15.655  66.613  0.00  0.00    +0.341 C 
ATOM     54  O   UNL     1      -8.749  16.509  65.664  0.00  0.00    -0.245 OA
BRANCH  53  55
ATOM     55  C   UNL     1     -10.521  14.656  66.081  0.00  0.00    +0.076 A 
ATOM     56  C   UNL     1     -11.098  14.830  64.707  0.00  0.00    +0.006 A 
ATOM     57  C   UNL     1     -12.083  13.831  64.175  0.00  0.00    +0.000 A 
ATOM     58  C   UNL     1     -12.491  12.659  65.017  0.00  0.00    +0.000 A 
ATOM     59  C   UNL     1     -11.914  12.485  66.391  0.00  0.00    +0.000 A 
ATOM     60  C   UNL     1     -10.929  13.484  66.922  0.00  0.00    +0.006 A 
ENDBRANCH  53  55
ENDBRANCH  52  53
ENDBRANCH   4  52
TORSDOF 15
ENDMDL
MODEL 2
REMARK VINA RESULT:      -8.1      2.510      9.112
REMARK  Name = 
REMARK  15 active torsions:
REMARK  status: ('A' for Active; 'I' for Inactive)
REMARK    1  A    between atoms: O_2  and  C_3
REMARK    2  A    between atoms: C_8  and  O_9
REMARK    3  A    between atoms: O_9  and  C_10
REMARK    4  A    between atoms: C_14  and  O_15
REMARK    5  A    between atoms: O_15  and  C_16
REMARK    6  A    between atoms: C_16  and  C_18
REMARK    7  A    between atoms: C_27  and  O_28
REMARK    8  A    between atoms: O_28  and  C_29
REMARK    9  A    between atoms: C_29  and  C_31
REMARK   10  A    between atoms: C_31  and  C_33
REMARK   11  A    between atoms: C_33  and  N_34
REMARK   12  A    between atoms: C_33  and  C_42
REMARK   13  A    between atoms: C_35  and  O_37
REMARK   14  A    between atoms: O_37  and  C_38
REMARK   15  A    between atoms: C_51  and  O_52
REMARK                            x       y       z     vdW  Elec       q    Type
REMARK                         _______ _______ _______ _____ _____    ______ ____
ROOT
ATOM      1  C   UNL     1      -9.822   5.698  70.780  0.00  0.00    +0.125 C 
ATOM      2  C   UNL     1     -10.120   7.123  70.421  0.00  0.00    +0.086 C 
ATOM      3  C   UNL     1      -9.400   7.773  69.277  0.00  0.00    +0.093 C 
ATOM      4  C   UNL     1      -9.427   9.132  68.641  0.00  0.00    +0.201 C 
ATOM      5  C   UNL     1     -10.187  10.402  68.885  0.00  0.00    +0.170 C 
ATOM      6  C   UNL     1     -11.233  10.840  69.866  0.00  0.00    +0.047 C 
ATOM      7  C   UNL     1     -11.242  12.191  69.213  0.00  0.00    +0.007 C 
ATOM      8  C   UNL     1     -11.796  11.758  70.059  0.00  0.00    +0.007 C 
ATOM      9  C   UNL     1     -11.953  10.190  71.010  0.00  0.00    -0.013 C 
ATOM     10  C   UNL     1     -11.925   8.832  71.646  0.00  0.00    +0.190 C 
ATOM     11  C   UNL     1     -12.379  11.612  70.798  0.00  0.00    -0.010 C 
ATOM     12  C   UNL     1     -13.420  12.224  71.688  0.00  0.00    +0.029 C 
ATOM     13  C   UNL     1     -11.764  12.423  69.696  0.00  0.00    +0.189 C 
ATOM     14  C   UNL     1     -10.723  11.811  68.806  0.00  0.00    +0.082 C 
ATOM     15  O   UNL     1      -9.812  11.489  67.922  0.00  0.00    -0.222 OA
ATOM     16  C   UNL     1      -8.382   6.999  68.494  0.00  0.00    +0.191 C 
ATOM     17  C   UNL     1      -8.084   5.574  68.854  0.00  0.00    +0.157 C 
ATOM     18  O   UNL     1      -7.080   5.501  67.741  0.00  0.00    -0.349 OA
ATOM     19  C   UNL     1      -7.378   6.927  67.381  0.00  0.00    +0.185 C 
ATOM     20  C   UNL     1     -10.735   6.312  71.523  0.00  0.00    +0.010 C 
ATOM     21  C   UNL     1     -11.166   7.561  71.402  0.00  0.00    +0.183 C 
ATOM     22  O   UNL     1     -11.541   6.474  72.365  0.00  0.00    -0.293 OA
ATOM     23  C   UNL     1      -8.804   4.922  69.997  0.00  0.00    +0.063 C 
ENDROOT
BRANCH  10  24
ATOM     24  O   UNL     1     -12.881   8.717  72.796  0.00  0.00    -0.342 OA
ATOM     25  C   UNL     1     -14.358   8.643  72.540  0.00  0.00    +0.175 C 
ENDBRANCH  10  24
BRANCH   1  27
ATOM     26  C   UNL     1      -9.810   4.748  73.199  0.00  0.00    +0.174 C 
ATOM     27  O   UNL     1     -10.543   5.047  71.924  0.00  0.00    -0.353 OA
ENDBRANCH   1  27
BRANCH  13  28
ATOM     28  O   UNL     1     -12.190  13.846  69.484  0.00  0.00    -0.446 OA
BRANCH  28  29
ATOM     29  C   UNL     1     -11.365  14.967  70.044  0.00  0.00    +0.350 C 
ATOM     30  O   UNL     1     -11.304  15.184  71.526  0.00  0.00    -0.247 OA
BRANCH  29  31
ATOM     31  C   UNL     1     -10.602  15.869  69.121  0.00  0.00    +0.274 C 
ATOM     32  O   UNL     1     -11.007  17.306  68.970  0.00  0.00    -0.209 OA
BRANCH  31  33
ATOM     33  C   UNL     1      -9.432  15.336  68.347  0.00  0.00    +0.162 C 
BRANCH  33  34
ATOM     34  C   UNL     1      -8.035  15.613  68.813  0.00  0.00    +0.001 A 
ATOM     35  C   UNL     1      -7.171  14.488  69.302  0.00  0.00    -0.003 A 
ATOM     36  C   UNL     1      -5.772  14.764  69.768  0.00  0.00    -0.000 A 
ATOM     37  C   UNL     1      -5.237  16.165  69.746  0.00  0.00    -0.000 A 
ATOM     38  C   UNL     1      -6.101  17.290  69.258  0.00  0.00    -0.000 A 
ATOM     39  C   UNL     1      -7.500  17.013  68.791  0.00  0.00    -0.003 A 
ENDBRANCH  33  34
BRANCH  33  40
ATOM     40  N   UNL     1      -9.662  14.525  67.106  0.00  0.00    -0.163 NA
ATOM     41  C   UNL     1      -9.920  15.213  65.798  0.00  0.00    +0.421 C 
ATOM     42  O   UNL     1      -9.947  16.712  65.731  0.00  0.00    -0.225 OA
BRANCH  41  43
ATOM     43  O   UNL     1     -10.150  14.403  64.556  0.00  0.00    -0.441 OA
BRANCH  43  44
ATOM     44  C   UNL     1     -11.274  13.412  64.504  0.00  0.00    +0.138 C 
ATOM     45  C   UNL     1     -12.399  12.421  64.452  0.00  0.00    +0.044 C 
ATOM     46  C   UNL     1     -10.281  12.292  64.412  0.00  0.00    +0.044 C 
ATOM     47  C   UNL     1     -12.267  14.534  64.596  0.00  0.00    +0.044 C 
ENDBRANCH  43  44
ENDBRANCH  41  43
ENDBRANCH  33  40
ENDBRANCH  31  33
ENDBRANCH  29  31
ENDBRANCH  28  29
ENDBRANCH  13  28
BRANCH  16  48
ATOM     48  O   UNL     1      -8.410   8.356  67.858  0.00  0.00    -0.451 OA
BRANCH  48  49
ATOM     49  C   UNL     1      -8.546   8.485  66.369  0.00  0.00    +0.317 C 
ATOM     50  O   UNL     1      -7.345   8.310  65.488  0.00  0.00    -0.250 OA
ATOM     51  C   UNL     1      -9.883   8.790  65.762  0.00  0.00    +0.121 C 
ENDBRANCH  48  49
ENDBRANCH  16  48
BRANCH   4  52
ATOM     52  O   UNL     1      -8.471   9.247  67.491  0.00  0.00    -0.446 OA
BRANCH  52  53
ATOM     53  C   UNL     1      -7.374  10.268  67.527  0.00  0.00    +0.341 C 
ATOM     54  O   UNL     1      -7.335  11.363  66.503  0.00  0.00    -0.245 OA
BRANCH  53  55
ATOM     55  C   UNL     1      -6.314  10.194  68.586  0.00  0.00    +0.076 A 
ATOM     56  C   UNL     1      -6.516  10.891  69.899  0.00  0.00    +0.006 A 
ATOM     57  C   UNL     1      -5.457  10.817  70.958  0.00  0.00    +0.000 A 
ATOM     58  C   UNL     1      -4.196  10.046  70.705  0.00  0.00    +0.000 A 
ATOM     59  C   UNL     1      -3.994   9.348  69.392  0.00  0.00    +0.000 A 
ATOM     60  C   UNL     1      -5.053   9.422  68.334  0.00  0.00    +0.006 A 
ENDBRANCH  53  55
ENDBRANCH  52  53
ENDBRANCH   4  52
TORSDOF 15
ENDMDL
MODEL 3
REMARK VINA RESULT:      -8.0      3.223      6.725
REMARK  Name = 
REMARK  15 active torsions:
REMARK  status: ('A' for Active; 'I' for Inactive)
REMARK    1  A    between atoms: O_2  and  C_3
REMARK    2  A    between atoms: C_8  and  O_9
REMARK    3  A    between atoms: O_9  and  C_10
REMARK    4  A    between atoms: C_14  and  O_15
REMARK    5  A    between atoms: O_15  and  C_16
REMARK    6  A    between atoms: C_16  and  C_18
REMARK    7  A    between atoms: C_27  and  O_28
REMARK    8  A    between atoms: O_28  and  C_29
REMARK    9  A    between atoms: C_29  and  C_31
REMARK   10  A    between atoms: C_31  and  C_33
REMARK   11  A    between atoms: C_33  and  N_34
REMARK   12  A    between atoms: C_33  and  C_42
REMARK   13  A    between atoms: C_35  and  O_37
REMARK   14  A    between atoms: O_37  and  C_38
REMARK   15  A    between atoms: C_51  and  O_52
REMARK                            x       y       z     vdW  Elec       q    Type
REMARK                         _______ _______ _______ _____ _____    ______ ____
ROOT
ATOM      1  C   UNL     1     -12.593  13.805  70.724  0.00  0.00    +0.125 C 
ATOM      2  C   UNL     1     -12.056  12.517  70.177  0.00  0.00    +0.086 C 
ATOM      3  C   UNL     1     -11.236  12.520  68.921  0.00  0.00    +0.093 C 
ATOM      4  C   UNL     1     -10.551  11.468  68.098  0.00  0.00    +0.201 C 
ATOM      5  C   UNL     1     -10.404   9.979  68.190  0.00  0.00    +0.170 C 
ATOM      6  C   UNL     1     -10.879   8.923  69.144  0.00  0.00    +0.047 C 
ATOM      7  C   UNL     1     -10.186   7.890  68.304  0.00  0.00    +0.007 C 
ATOM      8  C   UNL     1     -10.781   7.836  69.227  0.00  0.00    +0.007 C 
ATOM      9  C   UNL     1     -11.698   8.920  70.399  0.00  0.00    -0.013 C 
ATOM     10  C   UNL     1     -12.383   9.971  71.222  0.00  0.00    +0.190 C 
ATOM     11  C   UNL     1     -11.248   7.544  70.004  0.00  0.00    -0.010 C 
ATOM     12  C   UNL     1     -11.630   6.361  70.843  0.00  0.00    +0.029 C 
ATOM     13  C   UNL     1     -10.416   7.353  68.771  0.00  0.00    +0.189 C 
ATOM     14  C   UNL     1     -10.035   8.537  67.933  0.00  0.00    +0.082 C 
ATOM     15  O   UNL     1      -9.590   9.411  67.065  0.00  0.00    -0.222 OA
ATOM     16  C   UNL     1     -10.954  13.811  68.212  0.00  0.00    +0.191 C 
ATOM     17  C   UNL     1     -11.491  15.100  68.760  0.00  0.00    +0.157 C 
ATOM     18  O   UNL     1     -10.855  15.848  67.626  0.00  0.00    -0.349 OA
ATOM     19  C   UNL     1     -10.317  14.559  67.078  0.00  0.00    +0.185 C 
ATOM     20  C   UNL     1     -12.888  12.708  71.410  0.00  0.00    +0.010 C 
ATOM     21  C   UNL     1     -12.531  11.461  71.130  0.00  0.00    +0.183 C 
ATOM     22  O   UNL     1     -13.345  12.028  72.255  0.00  0.00    -0.293 OA
ATOM     23  C   UNL     1     -12.311  15.097  70.016  0.00  0.00    +0.063 C 
ENDROOT
BRANCH  10  24
ATOM     24  O   UNL     1     -13.084   9.398  72.418  0.00  0.00    -0.342 OA
ATOM     25  C   UNL     1     -14.296   8.533  72.235  0.00  0.00    +0.175 C 
ENDBRANCH  10  24
BRANCH   1  27
ATOM     26  C   UNL     1     -12.968  14.603  73.168  0.00  0.00    +0.174 C 
ATOM     27  O   UNL     1     -13.413  13.801  71.980  0.00  0.00    -0.353 OA
ENDBRANCH   1  27
BRANCH  13  28
ATOM     28  O   UNL     1      -9.966   5.978  68.376  0.00  0.00    -0.446 OA
BRANCH  28  29
ATOM     29  C   UNL     1      -8.703   5.801  67.585  0.00  0.00    +0.350 C 
ATOM     30  O   UNL     1      -8.710   6.025  66.103  0.00  0.00    -0.247 OA
BRANCH  29  31
ATOM     31  C   UNL     1      -7.436   5.399  68.278  0.00  0.00    +0.274 C 
ATOM     32  O   UNL     1      -6.871   4.024  68.073  0.00  0.00    -0.209 OA
BRANCH  31  33
ATOM     33  C   UNL     1      -6.730   6.372  69.176  0.00  0.00    +0.162 C 
BRANCH  33  34
ATOM     34  C   UNL     1      -7.378   6.822  70.451  0.00  0.00    +0.001 A 
ATOM     35  C   UNL     1      -7.919   5.809  71.416  0.00  0.00    -0.003 A 
ATOM     36  C   UNL     1      -8.567   6.260  72.692  0.00  0.00    -0.000 A 
ATOM     37  C   UNL     1      -8.674   7.723  73.003  0.00  0.00    -0.000 A 
ATOM     38  C   UNL     1      -8.133   8.737  72.037  0.00  0.00    -0.000 A 
ATOM     39  C   UNL     1      -7.485   8.285  70.762  0.00  0.00    -0.003 A 
ENDBRANCH  33  34
BRANCH  33  40
ATOM     40  N   UNL     1      -5.376   6.894  68.798  0.00  0.00    -0.163 NA
ATOM     41  C   UNL     1      -5.252   7.994  67.785  0.00  0.00    +0.421 C 
ATOM     42  O   UNL     1      -6.483   8.571  67.151  0.00  0.00    -0.225 OA
BRANCH  41  43
ATOM     43  O   UNL     1      -3.898   8.516  67.406  0.00  0.00    -0.441 OA
BRANCH  43  44
ATOM     44  C   UNL     1      -3.626   9.991  67.437  0.00  0.00    +0.138 C 
ATOM     45  C   UNL     1      -3.355  11.466  67.469  0.00  0.00    +0.044 C 
ATOM     46  C   UNL     1      -3.482   9.932  68.929  0.00  0.00    +0.044 C 
ATOM     47  C   UNL     1      -3.771  10.049  65.946  0.00  0.00    +0.044 C 
ENDBRANCH  43  44
ENDBRANCH  41  43
ENDBRANCH  33  40
ENDBRANCH  31  33
ENDBRANCH  29  31
ENDBRANCH  28  29
ENDBRANCH  13  28
BRANCH  16  48
ATOM     48  O   UNL     1     -10.270  12.760  67.390  0.00  0.00    -0.451 OA
BRANCH  48  49
ATOM     49  C   UNL     1     -10.516  12.687  65.911  0.00  0.00    +0.317 C 
ATOM     50  O   UNL     1      -9.733  13.559  64.976  0.00  0.00    -0.250 OA
ATOM     51  C   UNL     1     -11.545  11.740  65.369  0.00  0.00    +0.121 C 
ENDBRANCH  48  49
ENDBRANCH  16  48
BRANCH   4  52
ATOM     52  O   UNL     1      -9.850  12.041  66.901  0.00  0.00    -0.446 OA
BRANCH  52  53
ATOM     53  C   UNL     1      -8.375  11.837  66.727  0.00  0.00    +0.341 C 
ATOM     54  O   UNL     1      -7.857  11.097  65.530  0.00  0.00    -0.245 OA
BRANCH  53  55
ATOM     55  C   UNL     1      -7.417  12.373  67.750  0.00  0.00    +0.076 A 
ATOM     56  C   UNL     1      -7.080  11.555  68.961  0.00  0.00    +0.006 A 
ATOM     57  C   UNL     1      -6.122  12.090  69.984  0.00  0.00    +0.000 A 
ATOM     58  C   UNL     1      -5.502  13.443  69.795  0.00  0.00    +0.000 A 
ATOM     59  C   UNL     1      -5.840  14.260  68.583  0.00  0.00    +0.000 A 
ATOM     60  C   UNL     1      -6.797  13.725  67.561  0.00  0.00    +0.006 A 
ENDBRANCH  53  55
ENDBRANCH  52  53
ENDBRANCH   4  52
TORSDOF 15
ENDMDL
MODEL 4
REMARK VINA RESULT:      -8.0      3.264      9.298
REMARK  Name = 
REMARK  15 active torsions:
REMARK  status: ('A' for Active; 'I' for Inactive)
REMARK    1  A    between atoms: O_2  and  C_3
REMARK    2  A    between atoms: C_8  and  O_9
REMARK    3  A    between atoms: O_9  and  C_10
REMARK    4  A    between atoms: C_14  and  O_15
REMARK    5  A    between atoms: O_15  and  C_16
REMARK    6  A    between atoms: C_16  and  C_18
REMARK    7  A    between atoms: C_27  and  O_28
REMARK    8  A    between atoms: O_28  and  C_29
REMARK    9  A    between atoms: C_29  and  C_31
REMARK   10  A    between atoms: C_31  and  C_33
REMARK   11  A    between atoms: C_33  and  N_34
REMARK   12  A    between atoms: C_33  and  C_42
REMARK   13  A    between atoms: C_35  and  O_37
REMARK   14  A    between atoms: O_37  and  C_38
REMARK   15  A    between atoms: C_51  and  O_52
REMARK                            x       y       z     vdW  Elec       q    Type
REMARK                         _______ _______ _______ _____ _____    ______ ____
ROOT
ATOM      1  C   UNL     1      -5.845   7.093  65.688  0.00  0.00    +0.125 C 
ATOM      2  C   UNL     1      -6.952   8.041  66.041  0.00  0.00    +0.086 C 
ATOM      3  C   UNL     1      -7.258   8.334  67.480  0.00  0.00    +0.093 C 
ATOM      4  C   UNL     1      -8.254   9.195  68.199  0.00  0.00    +0.201 C 
ATOM      5  C   UNL     1      -9.356  10.121  67.776  0.00  0.00    +0.170 C 
ATOM      6  C   UNL     1      -9.919  10.568  66.460  0.00  0.00    +0.047 C 
ATOM      7  C   UNL     1     -10.905  11.422  67.202  0.00  0.00    +0.007 C 
ATOM      8  C   UNL     1     -10.719  11.240  66.134  0.00  0.00    +0.007 C 
ATOM      9  C   UNL     1      -9.613  10.276  65.022  0.00  0.00    -0.013 C 
ATOM     10  C   UNL     1      -8.617   9.415  64.303  0.00  0.00    +0.190 C 
ATOM     11  C   UNL     1     -10.748  11.243  65.182  0.00  0.00    -0.010 C 
ATOM     12  C   UNL     1     -11.436  11.799  63.970  0.00  0.00    +0.029 C 
ATOM     13  C   UNL     1     -11.195  11.654  66.554  0.00  0.00    +0.189 C 
ATOM     14  C   UNL     1     -10.507  11.098  67.764  0.00  0.00    +0.082 C 
ATOM     15  O   UNL     1     -10.061  10.745  68.944  0.00  0.00    -0.222 OA
ATOM     16  C   UNL     1      -6.457   7.678  68.565  0.00  0.00    +0.191 C 
ATOM     17  C   UNL     1      -5.350   6.731  68.212  0.00  0.00    +0.157 C 
ATOM     18  O   UNL     1      -5.063   6.521  69.670  0.00  0.00    -0.349 OA
ATOM     19  C   UNL     1      -6.171   7.469  70.023  0.00  0.00    +0.185 C 
ATOM     20  C   UNL     1      -6.505   7.630  64.670  0.00  0.00    +0.010 C 
ATOM     21  C   UNL     1      -7.515   8.489  64.725  0.00  0.00    +0.183 C 
ATOM     22  O   UNL     1      -6.810   7.864  63.557  0.00  0.00    -0.293 OA
ATOM     23  C   UNL     1      -5.043   6.438  66.773  0.00  0.00    +0.063 C 
ENDROOT
BRANCH  10  24
ATOM     24  O   UNL     1      -8.756   9.499  62.812  0.00  0.00    -0.342 OA
ATOM     25  C   UNL     1      -8.378  10.760  62.092  0.00  0.00    +0.175 C 
ENDBRANCH  10  24
BRANCH   1  27
ATOM     26  C   UNL     1      -4.272   7.317  63.632  0.00  0.00    +0.174 C 
ATOM     27  O   UNL     1      -5.539   6.801  64.249  0.00  0.00    -0.353 OA
ENDBRANCH   1  27
BRANCH  13  28
ATOM     28  O   UNL     1     -12.331  12.621  66.714  0.00  0.00    -0.446 OA
BRANCH  28  29
ATOM     29  C   UNL     1     -12.285  13.953  66.025  0.00  0.00    +0.350 C 
ATOM     30  O   UNL     1     -13.452  14.413  65.204  0.00  0.00    -0.247 OA
BRANCH  29  31
ATOM     31  C   UNL     1     -11.071  14.823  66.158  0.00  0.00    +0.274 C 
ATOM     32  O   UNL     1     -10.330  15.270  64.932  0.00  0.00    -0.209 OA
BRANCH  31  33
ATOM     33  C   UNL     1     -10.596  15.247  67.516  0.00  0.00    +0.162 C 
BRANCH  33  34
ATOM     34  C   UNL     1      -9.183  14.976  67.936  0.00  0.00    +0.001 A 
ATOM     35  C   UNL     1      -8.583  15.734  69.084  0.00  0.00    -0.003 A 
ATOM     36  C   UNL     1      -7.169  15.463  69.505  0.00  0.00    -0.000 A 
ATOM     37  C   UNL     1      -6.355  14.434  68.778  0.00  0.00    -0.000 A 
ATOM     38  C   UNL     1      -6.954  13.676  67.631  0.00  0.00    -0.000 A 
ATOM     39  C   UNL     1      -8.368  13.948  67.211  0.00  0.00    -0.003 A 
ENDBRANCH  33  34
BRANCH  33  40
ATOM     40  N   UNL     1     -11.537  15.944  68.454  0.00  0.00    -0.163 NA
ATOM     41  C   UNL     1     -12.202  15.175  69.557  0.00  0.00    +0.421 C 
ATOM     42  O   UNL     1     -11.926  13.710  69.722  0.00  0.00    -0.225 OA
BRANCH  41  43
ATOM     43  O   UNL     1     -13.143  15.871  70.496  0.00  0.00    -0.441 OA
BRANCH  43  44
ATOM     44  C   UNL     1     -13.094  15.573  71.965  0.00  0.00    +0.138 C 
ATOM     45  C   UNL     1     -13.045  15.275  73.435  0.00  0.00    +0.044 C 
ATOM     46  C   UNL     1     -11.737  16.208  72.047  0.00  0.00    +0.044 C 
ATOM     47  C   UNL     1     -14.450  14.938  71.882  0.00  0.00    +0.044 C 
ENDBRANCH  43  44
ENDBRANCH  41  43
ENDBRANCH  33  40
ENDBRANCH  31  33
ENDBRANCH  29  31
ENDBRANCH  28  29
ENDBRANCH  13  28
BRANCH  16  48
ATOM     48  O   UNL     1      -7.452   8.540  69.284  0.00  0.00    -0.451 OA
BRANCH  48  49
ATOM     49  C   UNL     1      -6.985   9.532  70.308  0.00  0.00    +0.317 C 
ATOM     50  O   UNL     1      -6.943   9.151  71.758  0.00  0.00    -0.250 OA
ATOM     51  C   UNL     1      -6.560  10.906  69.882  0.00  0.00    +0.121 C 
ENDBRANCH  48  49
ENDBRANCH  16  48
BRANCH   4  52
ATOM     52  O   UNL     1      -8.115   9.111  69.690  0.00  0.00    -0.446 OA
BRANCH  52  53
ATOM     53  C   UNL     1      -9.217   8.515  70.514  0.00  0.00    +0.341 C 
ATOM     54  O   UNL     1     -10.123   9.406  71.311  0.00  0.00    -0.245 OA
BRANCH  53  55
ATOM     55  C   UNL     1      -9.413   7.028  70.541  0.00  0.00    +0.076 A 
ATOM     56  C   UNL     1      -9.049   6.246  71.769  0.00  0.00    +0.006 A 
ATOM     57  C   UNL     1      -9.245   4.759  71.796  0.00  0.00    +0.000 A 
ATOM     58  C   UNL     1      -9.805   4.055  70.596  0.00  0.00    +0.000 A 
ATOM     59  C   UNL     1     -10.169   4.837  69.369  0.00  0.00    +0.000 A 
ATOM     60  C   UNL     1      -9.973   6.323  69.342  0.00  0.00    +0.006 A 
ENDBRANCH  53  55
ENDBRANCH  52  53
ENDBRANCH   4  52
TORSDOF 15
ENDMDL
MODEL 5
REMARK VINA RESULT:      -7.9      2.825      9.507
REMARK  Name = 
REMARK  15 active torsions:
REMARK  status: ('A' for Active; 'I' for Inactive)
REMARK    1  A    between atoms: O_2  and  C_3
REMARK    2  A    between atoms: C_8  and  O_9
REMARK    3  A    between atoms: O_9  and  C_10
REMARK    4  A    between atoms: C_14  and  O_15
REMARK    5  A    between atoms: O_15  and  C_16
REMARK    6  A    between atoms: C_16  and  C_18
REMARK    7  A    between atoms: C_27  and  O_28
REMARK    8  A    between atoms: O_28  and  C_29
REMARK    9  A    between atoms: C_29  and  C_31
REMARK   10  A    between atoms: C_31  and  C_33
REMARK   11  A    between atoms: C_33  and  N_34
REMARK   12  A    between atoms: C_33  and  C_42
REMARK   13  A    between atoms: C_35  and  O_37
REMARK   14  A    between atoms: O_37  and  C_38
REMARK   15  A    between atoms: C_51  and  O_52
REMARK                            x       y       z     vdW  Elec       q    Type
REMARK                         _______ _______ _______ _____ _____    ______ ____
ROOT
ATOM      1  C   UNL     1      -6.571   5.901  65.710  0.00  0.00    +0.125 C 
ATOM      2  C   UNL     1      -7.563   6.988  66.001  0.00  0.00    +0.086 C 
ATOM      3  C   UNL     1      -8.181   7.094  67.363  0.00  0.00    +0.093 C 
ATOM      4  C   UNL     1      -9.176   8.013  68.008  0.00  0.00    +0.201 C 
ATOM      5  C   UNL     1      -9.965   9.206  67.558  0.00  0.00    +0.170 C 
ATOM      6  C   UNL     1     -10.086   9.975  66.276  0.00  0.00    +0.047 C 
ATOM      7  C   UNL     1     -11.079  10.881  66.943  0.00  0.00    +0.007 C 
ATOM      8  C   UNL     1     -10.653  10.844  65.930  0.00  0.00    +0.007 C 
ATOM      9  C   UNL     1      -9.468   9.869  64.913  0.00  0.00    -0.013 C 
ATOM     10  C   UNL     1      -8.473   8.950  64.269  0.00  0.00    +0.190 C 
ATOM     11  C   UNL     1     -10.434  11.012  65.019  0.00  0.00    -0.010 C 
ATOM     12  C   UNL     1     -10.683  11.894  63.831  0.00  0.00    +0.029 C 
ATOM     13  C   UNL     1     -11.149  11.273  66.311  0.00  0.00    +0.189 C 
ATOM     14  C   UNL     1     -10.899  10.391  67.497  0.00  0.00    +0.082 C 
ATOM     15  O   UNL     1     -10.837   9.761  68.644  0.00  0.00    -0.222 OA
ATOM     16  C   UNL     1      -7.806   6.113  68.435  0.00  0.00    +0.191 C 
ATOM     17  C   UNL     1      -6.815   5.027  68.144  0.00  0.00    +0.157 C 
ATOM     18  O   UNL     1      -6.955   4.521  69.550  0.00  0.00    -0.349 OA
ATOM     19  C   UNL     1      -7.947   5.608  69.841  0.00  0.00    +0.185 C 
ATOM     20  C   UNL     1      -6.847   6.727  64.708  0.00  0.00    +0.010 C 
ATOM     21  C   UNL     1      -7.684   7.756  64.719  0.00  0.00    +0.183 C 
ATOM     22  O   UNL     1      -6.811   7.202  63.632  0.00  0.00    -0.293 OA
ATOM     23  C   UNL     1      -6.196   4.920  66.781  0.00  0.00    +0.063 C 
ENDROOT
BRANCH  10  24
ATOM     24  O   UNL     1      -8.205   9.309  62.837  0.00  0.00    -0.342 OA
ATOM     25  C   UNL     1      -9.280   9.136  61.805  0.00  0.00    +0.175 C 
ENDBRANCH  10  24
BRANCH   1  27
ATOM     26  C   UNL     1      -4.532   6.226  64.132  0.00  0.00    +0.174 C 
ATOM     27  O   UNL     1      -5.953   5.795  64.347  0.00  0.00    -0.353 OA
ENDBRANCH   1  27
BRANCH  13  28
ATOM     28  O   UNL     1     -12.114  12.417  66.416  0.00  0.00    -0.446 OA
BRANCH  28  29
ATOM     29  C   UNL     1     -11.603  13.821  66.544  0.00  0.00    +0.350 C 
ATOM     30  O   UNL     1     -11.862  14.815  65.452  0.00  0.00    -0.247 OA
BRANCH  29  31
ATOM     31  C   UNL     1     -10.832  14.229  67.763  0.00  0.00    +0.274 C 
ATOM     32  O   UNL     1      -9.439  13.714  67.979  0.00  0.00    -0.209 OA
BRANCH  31  33
ATOM     33  C   UNL     1     -11.452  15.153  68.769  0.00  0.00    +0.162 C 
BRANCH  33  34
ATOM     34  C   UNL     1     -12.176  14.593  69.957  0.00  0.00    +0.001 A 
ATOM     35  C   UNL     1     -12.158  13.116  70.218  0.00  0.00    -0.003 A 
ATOM     36  C   UNL     1     -12.882  12.556  71.407  0.00  0.00    -0.000 A 
ATOM     37  C   UNL     1     -13.624  13.472  72.334  0.00  0.00    -0.000 A 
ATOM     38  C   UNL     1     -13.642  14.950  72.072  0.00  0.00    -0.000 A 
ATOM     39  C   UNL     1     -12.918  15.509  70.884  0.00  0.00    -0.003 A 
ENDBRANCH  33  34
BRANCH  33  40
ATOM     40  N   UNL     1     -11.348  16.638  68.586  0.00  0.00    -0.163 NA
ATOM     41  C   UNL     1     -10.029  17.327  68.774  0.00  0.00    +0.421 C 
ATOM     42  O   UNL     1      -8.813  16.529  69.144  0.00  0.00    -0.225 OA
BRANCH  41  43
ATOM     43  O   UNL     1      -9.924  18.812  68.590  0.00  0.00    -0.441 OA
BRANCH  43  44
ATOM     44  C   UNL     1      -9.039  19.375  67.518  0.00  0.00    +0.138 C 
ATOM     45  C   UNL     1      -8.154  19.939  66.446  0.00  0.00    +0.044 C 
ATOM     46  C   UNL     1     -10.156  19.239  66.527  0.00  0.00    +0.044 C 
ATOM     47  C   UNL     1      -7.923  19.512  68.511  0.00  0.00    +0.044 C 
ENDBRANCH  43  44
ENDBRANCH  41  43
ENDBRANCH  33  40
ENDBRANCH  31  33
ENDBRANCH  29  31
ENDBRANCH  28  29
ENDBRANCH  13  28
BRANCH  16  48
ATOM     48  O   UNL     1      -8.801   7.032  69.080  0.00  0.00    -0.451 OA
BRANCH  48  49
ATOM     49  C   UNL     1      -9.971   6.465  69.828  0.00  0.00    +0.317 C 
ATOM     50  O   UNL     1      -9.837   6.125  71.283  0.00  0.00    -0.250 OA
ATOM     51  C   UNL     1     -11.274   6.237  69.122  0.00  0.00    +0.121 C 
ENDBRANCH  48  49
ENDBRANCH  16  48
BRANCH   4  52
ATOM     52  O   UNL     1      -9.445   7.654  69.440  0.00  0.00    -0.446 OA
BRANCH  52  53
ATOM     53  C   UNL     1      -9.151   8.642  70.529  0.00  0.00    +0.341 C 
ATOM     54  O   UNL     1     -10.256   9.128  71.419  0.00  0.00    -0.245 OA
BRANCH  53  55
ATOM     55  C   UNL     1      -7.752   9.145  70.729  0.00  0.00    +0.076 A 
ATOM     56  C   UNL     1      -6.865   8.506  71.757  0.00  0.00    +0.006 A 
ATOM     57  C   UNL     1      -5.466   9.009  71.956  0.00  0.00    +0.000 A 
ATOM     58  C   UNL     1      -4.954  10.150  71.128  0.00  0.00    +0.000 A 
ATOM     59  C   UNL     1      -5.841  10.788  70.100  0.00  0.00    +0.000 A 
ATOM     60  C   UNL     1      -7.239  10.286  69.901  0.00  0.00    +0.006 A 
ENDBRANCH  53  55
ENDBRANCH  52  53
ENDBRANCH   4  52
TORSDOF 15
ENDMDL
MODEL 6
REMARK VINA RESULT:      -7.9      3.041      7.189
REMARK  Name = 
REMARK  15 active torsions:
REMARK  status: ('A' for Active; 'I' for Inactive)
REMARK    1  A    between atoms: O_2  and  C_3
REMARK    2  A    between atoms: C_8  and  O_9
REMARK    3  A    between atoms: O_9  and  C_10
REMARK    4  A    between atoms: C_14  and  O_15
REMARK    5  A    between atoms: O_15  and  C_16
REMARK    6  A    between atoms: C_16  and  C_18
REMARK    7  A    between atoms: C_27  and  O_28
REMARK    8  A    between atoms: O_28  and  C_29
REMARK    9  A    between atoms: C_29  and  C_31
REMARK   10  A    between atoms: C_31  and  C_33
REMARK   11  A    between atoms: C_33  and  N_34
REMARK   12  A    between atoms: C_33  and  C_42
REMARK   13  A    between atoms: C_35  and  O_37
REMARK   14  A    between atoms: O_37  and  C_38
REMARK   15  A    between atoms: C_51  and  O_52
REMARK                            x       y       z     vdW  Elec       q    Type
REMARK                         _______ _______ _______ _____ _____    ______ ____
ROOT
ATOM      1  C   UNL     1     -12.685  14.113  70.832  0.00  0.00    +0.125 C 
ATOM      2  C   UNL     1     -12.117  12.843  70.272  0.00  0.00    +0.086 C 
ATOM      3  C   UNL     1     -11.287  12.880  69.024  0.00  0.00    +0.093 C 
ATOM      4  C   UNL     1     -10.574  11.854  68.192  0.00  0.00    +0.201 C 
ATOM      5  C   UNL     1     -10.397  10.367  68.265  0.00  0.00    +0.170 C 
ATOM      6  C   UNL     1     -10.860   9.288  69.199  0.00  0.00    +0.047 C 
ATOM      7  C   UNL     1     -10.139   8.281  68.352  0.00  0.00    +0.007 C 
ATOM      8  C   UNL     1     -10.742   8.203  69.268  0.00  0.00    +0.007 C 
ATOM      9  C   UNL     1     -11.690   9.251  70.448  0.00  0.00    -0.013 C 
ATOM     10  C   UNL     1     -12.403  10.277  71.279  0.00  0.00    +0.190 C 
ATOM     11  C   UNL     1     -11.209   7.891  70.037  0.00  0.00    -0.010 C 
ATOM     12  C   UNL     1     -11.575   6.688  70.856  0.00  0.00    +0.029 C 
ATOM     13  C   UNL     1     -10.363   7.734  68.809  0.00  0.00    +0.189 C 
ATOM     14  C   UNL     1      -9.997   8.937  67.992  0.00  0.00    +0.082 C 
ATOM     15  O   UNL     1      -9.562   9.832  67.140  0.00  0.00    -0.222 OA
ATOM     16  C   UNL     1     -11.024  14.187  68.336  0.00  0.00    +0.191 C 
ATOM     17  C   UNL     1     -11.592  15.457  68.897  0.00  0.00    +0.157 C 
ATOM     18  O   UNL     1     -10.961  16.234  67.779  0.00  0.00    -0.349 OA
ATOM     19  C   UNL     1     -10.393  14.963  67.218  0.00  0.00    +0.185 C 
ATOM     20  C   UNL     1     -12.964  13.000  71.500  0.00  0.00    +0.010 C 
ATOM     21  C   UNL     1     -12.579  11.765  71.206  0.00  0.00    +0.183 C 
ATOM     22  O   UNL     1     -13.415  12.300  72.332  0.00  0.00    -0.293 OA
ATOM     23  C   UNL     1     -12.423  15.420  70.145  0.00  0.00    +0.063 C 
ENDROOT
BRANCH  10  24
ATOM     24  O   UNL     1     -13.103   9.673  72.460  0.00  0.00    -0.342 OA
ATOM     25  C   UNL     1     -14.242   8.719  72.251  0.00  0.00    +0.175 C 
ENDBRANCH  10  24
BRANCH   1  27
ATOM     26  C   UNL     1     -13.143  14.930  73.256  0.00  0.00    +0.174 C 
ATOM     27  O   UNL     1     -13.516  14.075  72.081  0.00  0.00    -0.353 OA
ENDBRANCH   1  27
BRANCH  13  28
ATOM     28  O   UNL     1      -9.881   6.373  68.399  0.00  0.00    -0.446 OA
BRANCH  28  29
ATOM     29  C   UNL     1      -8.454   6.177  67.982  0.00  0.00    +0.350 C 
ATOM     30  O   UNL     1      -8.070   6.305  66.538  0.00  0.00    -0.247 OA
BRANCH  29  31
ATOM     31  C   UNL     1      -7.411   5.853  69.009  0.00  0.00    +0.274 C 
ATOM     32  O   UNL     1      -6.779   4.493  69.035  0.00  0.00    -0.209 OA
BRANCH  31  33
ATOM     33  C   UNL     1      -6.999   6.889  70.013  0.00  0.00    +0.162 C 
BRANCH  33  34
ATOM     34  C   UNL     1      -5.850   7.806  69.717  0.00  0.00    +0.001 A 
ATOM     35  C   UNL     1      -4.763   7.998  70.733  0.00  0.00    -0.003 A 
ATOM     36  C   UNL     1      -3.614   8.916  70.438  0.00  0.00    -0.000 A 
ATOM     37  C   UNL     1      -3.551   9.641  69.126  0.00  0.00    -0.000 A 
ATOM     38  C   UNL     1      -4.638   9.449  68.110  0.00  0.00    -0.000 A 
ATOM     39  C   UNL     1      -5.787   8.531  68.406  0.00  0.00    -0.003 A 
ENDBRANCH  33  34
BRANCH  33  40
ATOM     40  N   UNL     1      -7.737   7.007  71.314  0.00  0.00    -0.163 NA
ATOM     41  C   UNL     1      -8.187   8.352  71.801  0.00  0.00    +0.421 C 
ATOM     42  O   UNL     1      -7.900   9.580  70.987  0.00  0.00    -0.225 OA
BRANCH  41  43
ATOM     43  O   UNL     1      -8.925   8.472  73.101  0.00  0.00    -0.441 OA
BRANCH  43  44
ATOM     44  C   UNL     1      -8.538   7.609  74.266  0.00  0.00    +0.138 C 
ATOM     45  C   UNL     1      -8.151   6.746  75.431  0.00  0.00    +0.044 C 
ATOM     46  C   UNL     1      -7.256   8.374  74.405  0.00  0.00    +0.044 C 
ATOM     47  C   UNL     1      -9.821   6.844  74.126  0.00  0.00    +0.044 C 
ENDBRANCH  43  44
ENDBRANCH  41  43
ENDBRANCH  33  40
ENDBRANCH  31  33
ENDBRANCH  29  31
ENDBRANCH  28  29
ENDBRANCH  13  28
BRANCH  16  48
ATOM     48  O   UNL     1     -10.312  13.162  67.505  0.00  0.00    -0.451 OA
BRANCH  48  49
ATOM     49  C   UNL     1     -10.574  13.077  66.030  0.00  0.00    +0.317 C 
ATOM     50  O   UNL     1      -9.786  13.926  65.078  0.00  0.00    -0.250 OA
ATOM     51  C   UNL     1     -11.626  12.144  65.508  0.00  0.00    +0.121 C 
ENDBRANCH  48  49
ENDBRANCH  16  48
BRANCH   4  52
ATOM     52  O   UNL     1      -9.874  12.458  67.011  0.00  0.00    -0.446 OA
BRANCH  52  53
ATOM     53  C   UNL     1      -8.405  12.233  66.813  0.00  0.00    +0.341 C 
ATOM     54  O   UNL     1      -7.923  11.390  65.670  0.00  0.00    -0.245 OA
BRANCH  53  55
ATOM     55  C   UNL     1      -7.417  12.849  67.759  0.00  0.00    +0.076 A 
ATOM     56  C   UNL     1      -6.913  14.241  67.514  0.00  0.00    +0.006 A 
ATOM     57  C   UNL     1      -5.926  14.858  68.460  0.00  0.00    +0.000 A 
ATOM     58  C   UNL     1      -5.442  14.083  69.650  0.00  0.00    +0.000 A 
ATOM     59  C   UNL     1      -5.946  12.691  69.894  0.00  0.00    +0.000 A 
ATOM     60  C   UNL     1      -6.933  12.075  68.948  0.00  0.00    +0.006 A 
ENDBRANCH  53  55
ENDBRANCH  52  53
ENDBRANCH   4  52
TORSDOF 15
ENDMDL
MODEL 7
REMARK VINA RESULT:      -7.9      2.491      9.147
REMARK  Name = 
REMARK  15 active torsions:
REMARK  status: ('A' for Active; 'I' for Inactive)
REMARK    1  A    between atoms: O_2  and  C_3
REMARK    2  A    between atoms: C_8  and  O_9
REMARK    3  A    between atoms: O_9  and  C_10
REMARK    4  A    between atoms: C_14  and  O_15
REMARK    5  A    between atoms: O_15  and  C_16
REMARK    6  A    between atoms: C_16  and  C_18
REMARK    7  A    between atoms: C_27  and  O_28
REMARK    8  A    between atoms: O_28  and  C_29
REMARK    9  A    between atoms: C_29  and  C_31
REMARK   10  A    between atoms: C_31  and  C_33
REMARK   11  A    between atoms: C_33  and  N_34
REMARK   12  A    between atoms: C_33  and  C_42
REMARK   13  A    between atoms: C_35  and  O_37
REMARK   14  A    between atoms: O_37  and  C_38
REMARK   15  A    between atoms: C_51  and  O_52
REMARK                            x       y       z     vdW  Elec       q    Type
REMARK                         _______ _______ _______ _____ _____    ______ ____
ROOT
ATOM      1  C   UNL     1      -9.712   5.698  70.895  0.00  0.00    +0.125 C 
ATOM      2  C   UNL     1     -10.011   7.103  70.464  0.00  0.00    +0.086 C 
ATOM      3  C   UNL     1      -9.289   7.697  69.292  0.00  0.00    +0.093 C 
ATOM      4  C   UNL     1      -9.316   9.023  68.590  0.00  0.00    +0.201 C 
ATOM      5  C   UNL     1     -10.078  10.302  68.769  0.00  0.00    +0.170 C 
ATOM      6  C   UNL     1     -11.128  10.786  69.724  0.00  0.00    +0.047 C 
ATOM      7  C   UNL     1     -11.137  12.103  69.005  0.00  0.00    +0.007 C 
ATOM      8  C   UNL     1     -11.692  11.712  69.870  0.00  0.00    +0.007 C 
ATOM      9  C   UNL     1     -11.850  10.192  70.897  0.00  0.00    -0.013 C 
ATOM     10  C   UNL     1     -11.822   8.867  71.599  0.00  0.00    +0.190 C 
ATOM     11  C   UNL     1     -12.277  11.602  70.613  0.00  0.00    -0.010 C 
ATOM     12  C   UNL     1     -13.322  12.255  71.470  0.00  0.00    +0.029 C 
ATOM     13  C   UNL     1     -11.660  12.358  69.474  0.00  0.00    +0.189 C 
ATOM     14  C   UNL     1     -10.617  11.705  68.619  0.00  0.00    +0.082 C 
ATOM     15  O   UNL     1      -9.702  11.341  67.754  0.00  0.00    -0.222 OA
ATOM     16  C   UNL     1      -8.268   6.886  68.551  0.00  0.00    +0.191 C 
ATOM     17  C   UNL     1      -7.969   5.481  68.981  0.00  0.00    +0.157 C 
ATOM     18  O   UNL     1      -6.962   5.355  67.876  0.00  0.00    -0.349 OA
ATOM     19  C   UNL     1      -7.261   6.761  67.445  0.00  0.00    +0.185 C 
ATOM     20  C   UNL     1     -10.628   6.346  71.603  0.00  0.00    +0.010 C 
ATOM     21  C   UNL     1     -11.060   7.587  71.420  0.00  0.00    +0.183 C 
ATOM     22  O   UNL     1     -11.436   6.548  72.435  0.00  0.00    -0.293 OA
ATOM     23  C   UNL     1      -8.691   4.886  70.154  0.00  0.00    +0.063 C 
ENDROOT
BRANCH  10  24
ATOM     24  O   UNL     1     -12.781   8.808  72.751  0.00  0.00    -0.342 OA
ATOM     25  C   UNL     1     -14.257   8.714  72.495  0.00  0.00    +0.175 C 
ENDBRANCH  10  24
BRANCH   1  27
ATOM     26  C   UNL     1      -9.704   4.863  73.356  0.00  0.00    +0.174 C 
ATOM     27  O   UNL     1     -10.435   5.104  72.068  0.00  0.00    -0.353 OA
ENDBRANCH   1  27
BRANCH  13  28
ATOM     28  O   UNL     1     -12.088  13.768  69.191  0.00  0.00    -0.446 OA
BRANCH  28  29
ATOM     29  C   UNL     1     -11.096  14.888  69.298  0.00  0.00    +0.350 C 
ATOM     30  O   UNL     1     -10.428  15.175  70.609  0.00  0.00    -0.247 OA
BRANCH  29  31
ATOM     31  C   UNL     1     -10.773  15.720  68.093  0.00  0.00    +0.274 C 
ATOM     32  O   UNL     1     -11.211  17.153  68.031  0.00  0.00    -0.209 OA
BRANCH  31  33
ATOM     33  C   UNL     1     -10.011  15.120  66.948  0.00  0.00    +0.162 C 
BRANCH  33  34
ATOM     34  C   UNL     1     -10.704  14.207  65.982  0.00  0.00    +0.001 A 
ATOM     35  C   UNL     1     -12.199  14.091  66.000  0.00  0.00    -0.003 A 
ATOM     36  C   UNL     1     -12.893  13.177  65.033  0.00  0.00    -0.000 A 
ATOM     37  C   UNL     1     -12.091  12.379  64.048  0.00  0.00    -0.000 A 
ATOM     38  C   UNL     1     -10.595  12.495  64.030  0.00  0.00    -0.000 A 
ATOM     39  C   UNL     1      -9.902  13.408  64.997  0.00  0.00    -0.003 A 
ENDBRANCH  33  34
BRANCH  33  40
ATOM     40  N   UNL     1      -8.555  15.434  66.771  0.00  0.00    -0.163 NA
ATOM     41  C   UNL     1      -7.532  14.761  67.637  0.00  0.00    +0.421 C 
ATOM     42  O   UNL     1      -7.965  13.774  68.681  0.00  0.00    -0.225 OA
BRANCH  41  43
ATOM     43  O   UNL     1      -6.075  15.074  67.461  0.00  0.00    -0.441 OA
BRANCH  43  44
ATOM     44  C   UNL     1      -5.083  14.645  68.501  0.00  0.00    +0.138 C 
ATOM     45  C   UNL     1      -4.092  14.215  69.541  0.00  0.00    +0.044 C 
ATOM     46  C   UNL     1      -4.813  13.391  67.723  0.00  0.00    +0.044 C 
ATOM     47  C   UNL     1      -5.355  15.898  69.278  0.00  0.00    +0.044 C 
ENDBRANCH  43  44
ENDBRANCH  41  43
ENDBRANCH  33  40
ENDBRANCH  31  33
ENDBRANCH  29  31
ENDBRANCH  28  29
ENDBRANCH  13  28
BRANCH  16  48
ATOM     48  O   UNL     1      -8.295   8.211  67.848  0.00  0.00    -0.451 OA
BRANCH  48  49
ATOM     49  C   UNL     1      -8.466   8.267  66.359  0.00  0.00    +0.317 C 
ATOM     50  O   UNL     1      -7.290   8.031  65.459  0.00  0.00    -0.250 OA
ATOM     51  C   UNL     1      -9.814   8.560  65.769  0.00  0.00    +0.121 C 
ENDBRANCH  48  49
ENDBRANCH  16  48
BRANCH   4  52
ATOM     52  O   UNL     1      -8.357   9.082  67.437  0.00  0.00    -0.446 OA
BRANCH  52  53
ATOM     53  C   UNL     1      -7.272  10.116  67.418  0.00  0.00    +0.341 C 
ATOM     54  O   UNL     1      -7.235  11.144  66.325  0.00  0.00    -0.245 OA
BRANCH  53  55
ATOM     55  C   UNL     1      -6.223  10.124  68.490  0.00  0.00    +0.076 A 
ATOM     56  C   UNL     1      -6.500  10.789  69.806  0.00  0.00    +0.006 A 
ATOM     57  C   UNL     1      -5.451  10.797  70.878  0.00  0.00    +0.000 A 
ATOM     58  C   UNL     1      -4.125  10.140  70.634  0.00  0.00    +0.000 A 
ATOM     59  C   UNL     1      -3.848   9.475  69.317  0.00  0.00    +0.000 A 
ATOM     60  C   UNL     1      -4.897   9.467  68.247  0.00  0.00    +0.006 A 
ENDBRANCH  53  55
ENDBRANCH  52  53
ENDBRANCH   4  52
TORSDOF 15
ENDMDL
MODEL 8
REMARK VINA RESULT:      -7.9      2.715      9.419
REMARK  Name = 
REMARK  15 active torsions:
REMARK  status: ('A' for Active; 'I' for Inactive)
REMARK    1  A    between atoms: O_2  and  C_3
REMARK    2  A    between atoms: C_8  and  O_9
REMARK    3  A    between atoms: O_9  and  C_10
REMARK    4  A    between atoms: C_14  and  O_15
REMARK    5  A    between atoms: O_15  and  C_16
REMARK    6  A    between atoms: C_16  and  C_18
REMARK    7  A    between atoms: C_27  and  O_28
REMARK    8  A    between atoms: O_28  and  C_29
REMARK    9  A    between atoms: C_29  and  C_31
REMARK   10  A    between atoms: C_31  and  C_33
REMARK   11  A    between atoms: C_33  and  N_34
REMARK   12  A    between atoms: C_33  and  C_42
REMARK   13  A    between atoms: C_35  and  O_37
REMARK   14  A    between atoms: O_37  and  C_38
REMARK   15  A    between atoms: C_51  and  O_52
REMARK                            x       y       z     vdW  Elec       q    Type
REMARK                         _______ _______ _______ _____ _____    ______ ____
ROOT
ATOM      1  C   UNL     1      -9.746   5.598  70.650  0.00  0.00    +0.125 C 
ATOM      2  C   UNL     1     -10.075   7.021  70.310  0.00  0.00    +0.086 C 
ATOM      3  C   UNL     1      -9.365   7.705  69.180  0.00  0.00    +0.093 C 
ATOM      4  C   UNL     1      -9.421   9.073  68.564  0.00  0.00    +0.201 C 
ATOM      5  C   UNL     1     -10.210  10.321  68.824  0.00  0.00    +0.170 C 
ATOM      6  C   UNL     1     -11.270  10.720  69.807  0.00  0.00    +0.047 C 
ATOM      7  C   UNL     1     -11.308  12.081  69.175  0.00  0.00    +0.007 C 
ATOM      8  C   UNL     1     -11.855  11.623  70.011  0.00  0.00    +0.007 C 
ATOM      9  C   UNL     1     -11.980  10.036  70.937  0.00  0.00    -0.013 C 
ATOM     10  C   UNL     1     -11.924   8.670  71.553  0.00  0.00    +0.190 C 
ATOM     11  C   UNL     1     -12.437  11.452  70.745  0.00  0.00    -0.010 C 
ATOM     12  C   UNL     1     -13.496  12.026  71.640  0.00  0.00    +0.029 C 
ATOM     13  C   UNL     1     -11.836  12.293  69.658  0.00  0.00    +0.189 C 
ATOM     14  C   UNL     1     -10.778  11.719  68.764  0.00  0.00    +0.082 C 
ATOM     15  O   UNL     1      -9.856  11.431  67.879  0.00  0.00    -0.222 OA
ATOM     16  C   UNL     1      -8.327   6.966  68.389  0.00  0.00    +0.191 C 
ATOM     17  C   UNL     1      -7.998   5.543  68.729  0.00  0.00    +0.157 C 
ATOM     18  O   UNL     1      -6.988   5.510  67.620  0.00  0.00    -0.349 OA
ATOM     19  C   UNL     1      -7.317   6.935  67.280  0.00  0.00    +0.185 C 
ATOM     20  C   UNL     1     -10.676   6.180  71.397  0.00  0.00    +0.010 C 
ATOM     21  C   UNL     1     -11.135   7.420  71.293  0.00  0.00    +0.183 C 
ATOM     22  O   UNL     1     -11.489   6.310  72.238  0.00  0.00    -0.293 OA
ATOM     23  C   UNL     1      -8.708   4.858  69.859  0.00  0.00    +0.063 C 
ENDROOT
BRANCH  10  24
ATOM     24  O   UNL     1     -12.882   8.516  72.697  0.00  0.00    -0.342 OA
ATOM     25  C   UNL     1     -14.357   8.438  72.435  0.00  0.00    +0.175 C 
ENDBRANCH  10  24
BRANCH   1  27
ATOM     26  C   UNL     1      -9.719   4.601  73.049  0.00  0.00    +0.174 C 
ATOM     27  O   UNL     1     -10.457   4.914  71.780  0.00  0.00    -0.353 OA
ENDBRANCH   1  27
BRANCH  13  28
ATOM     28  O   UNL     1     -12.294  13.709  69.466  0.00  0.00    -0.446 OA
BRANCH  28  29
ATOM     29  C   UNL     1     -11.307  14.835  69.556  0.00  0.00    +0.350 C 
ATOM     30  O   UNL     1     -10.559  15.076  70.833  0.00  0.00    -0.247 OA
BRANCH  29  31
ATOM     31  C   UNL     1     -11.068  15.719  68.369  0.00  0.00    +0.274 C 
ATOM     32  O   UNL     1     -11.688  17.084  68.313  0.00  0.00    -0.209 OA
BRANCH  31  33
ATOM     33  C   UNL     1     -10.210  15.239  67.236  0.00  0.00    +0.162 C 
BRANCH  33  34
ATOM     34  C   UNL     1     -10.770  14.292  66.218  0.00  0.00    +0.001 A 
ATOM     35  C   UNL     1     -12.251  14.064  66.141  0.00  0.00    -0.003 A 
ATOM     36  C   UNL     1     -12.812  13.116  65.122  0.00  0.00    -0.000 A 
ATOM     37  C   UNL     1     -11.892  12.397  64.180  0.00  0.00    -0.000 A 
ATOM     38  C   UNL     1     -10.411  12.626  64.257  0.00  0.00    -0.000 A 
ATOM     39  C   UNL     1      -9.851  13.574  65.276  0.00  0.00    -0.003 A 
ENDBRANCH  33  34
BRANCH  33  40
ATOM     40  N   UNL     1      -8.789  15.708  67.122  0.00  0.00    -0.163 NA
ATOM     41  C   UNL     1      -8.474  16.973  66.380  0.00  0.00    +0.421 C 
ATOM     42  O   UNL     1      -9.579  17.769  65.751  0.00  0.00    -0.225 OA
BRANCH  41  43
ATOM     43  O   UNL     1      -7.053  17.442  66.266  0.00  0.00    -0.441 OA
BRANCH  43  44
ATOM     44  C   UNL     1      -6.722  18.890  66.476  0.00  0.00    +0.138 C 
ATOM     45  C   UNL     1      -6.391  20.338  66.686  0.00  0.00    +0.044 C 
ATOM     46  C   UNL     1      -7.108  18.767  67.920  0.00  0.00    +0.044 C 
ATOM     47  C   UNL     1      -6.337  19.012  65.031  0.00  0.00    +0.044 C 
ENDBRANCH  43  44
ENDBRANCH  41  43
ENDBRANCH  33  40
ENDBRANCH  31  33
ENDBRANCH  29  31
ENDBRANCH  28  29
ENDBRANCH  13  28
BRANCH  16  48
ATOM     48  O   UNL     1      -8.382   8.333  67.774  0.00  0.00    -0.451 OA
BRANCH  48  49
ATOM     49  C   UNL     1      -8.490   8.481  66.285  0.00  0.00    +0.317 C 
ATOM     50  O   UNL     1      -7.277   8.296  65.422  0.00  0.00    -0.250 OA
ATOM     51  C   UNL     1      -9.811   8.815  65.658  0.00  0.00    +0.121 C 
ENDBRANCH  48  49
ENDBRANCH  16  48
BRANCH   4  52
ATOM     52  O   UNL     1      -8.463   9.227  67.420  0.00  0.00    -0.446 OA
BRANCH  52  53
ATOM     53  C   UNL     1      -7.365  10.246  67.493  0.00  0.00    +0.341 C 
ATOM     54  O   UNL     1      -7.317  11.368  66.499  0.00  0.00    -0.245 OA
BRANCH  53  55
ATOM     55  C   UNL     1      -6.315  10.143  68.560  0.00  0.00    +0.076 A 
ATOM     56  C   UNL     1      -6.582  10.692  69.930  0.00  0.00    +0.006 A 
ATOM     57  C   UNL     1      -5.532  10.589  70.996  0.00  0.00    +0.000 A 
ATOM     58  C   UNL     1      -4.216   9.937  70.692  0.00  0.00    +0.000 A 
ATOM     59  C   UNL     1      -3.950   9.387  69.321  0.00  0.00    +0.000 A 
ATOM     60  C   UNL     1      -4.999   9.490  68.256  0.00  0.00    +0.006 A 
ENDBRANCH  53  55
ENDBRANCH  52  53
ENDBRANCH   4  52
TORSDOF 15
ENDMDL
MODEL 9
REMARK VINA RESULT:      -7.8      2.050      3.501
REMARK  Name = 
REMARK  15 active torsions:
REMARK  status: ('A' for Active; 'I' for Inactive)
REMARK    1  A    between atoms: O_2  and  C_3
REMARK    2  A    between atoms: C_8  and  O_9
REMARK    3  A    between atoms: O_9  and  C_10
REMARK    4  A    between atoms: C_14  and  O_15
REMARK    5  A    between atoms: O_15  and  C_16
REMARK    6  A    between atoms: C_16  and  C_18
REMARK    7  A    between atoms: C_27  and  O_28
REMARK    8  A    between atoms: O_28  and  C_29
REMARK    9  A    between atoms: C_29  and  C_31
REMARK   10  A    between atoms: C_31  and  C_33
REMARK   11  A    between atoms: C_33  and  N_34
REMARK   12  A    between atoms: C_33  and  C_42
REMARK   13  A    between atoms: C_35  and  O_37
REMARK   14  A    between atoms: O_37  and  C_38
REMARK   15  A    between atoms: C_51  and  O_52
REMARK                            x       y       z     vdW  Elec       q    Type
REMARK                         _______ _______ _______ _____ _____    ______ ____
ROOT
ATOM      1  C   UNL     1      -6.509  16.405  67.327  0.00  0.00    +0.125 C 
ATOM      2  C   UNL     1      -6.806  15.014  67.800  0.00  0.00    +0.086 C 
ATOM      3  C   UNL     1      -8.083  14.340  67.394  0.00  0.00    +0.093 C 
ATOM      4  C   UNL     1      -8.707  13.001  67.659  0.00  0.00    +0.201 C 
ATOM      5  C   UNL     1      -8.313  11.783  68.440  0.00  0.00    +0.170 C 
ATOM      6  C   UNL     1      -7.131  11.398  69.279  0.00  0.00    +0.047 C 
ATOM      7  C   UNL     1      -7.776  10.066  69.529  0.00  0.00    +0.007 C 
ATOM      8  C   UNL     1      -6.827  10.518  69.853  0.00  0.00    +0.007 C 
ATOM      9  C   UNL     1      -5.854  12.071  69.685  0.00  0.00    -0.013 C 
ATOM     10  C   UNL     1      -5.230  13.409  69.420  0.00  0.00    +0.190 C 
ATOM     11  C   UNL     1      -5.979  10.688  70.251  0.00  0.00    -0.010 C 
ATOM     12  C   UNL     1      -4.888  10.131  71.117  0.00  0.00    +0.029 C 
ATOM     13  C   UNL     1      -7.193   9.861  69.950  0.00  0.00    +0.189 C 
ATOM     14  C   UNL     1      -8.283  10.418  69.084  0.00  0.00    +0.082 C 
ATOM     15  O   UNL     1      -9.342  10.695  68.363  0.00  0.00    -0.222 OA
ATOM     16  C   UNL     1      -9.063  15.058  66.515  0.00  0.00    +0.191 C 
ATOM     17  C   UNL     1      -8.766  16.450  66.042  0.00  0.00    +0.157 C 
ATOM     18  O   UNL     1     -10.070  16.477  65.300  0.00  0.00    -0.349 OA
ATOM     19  C   UNL     1     -10.367  15.084  65.773  0.00  0.00    +0.185 C 
ATOM     20  C   UNL     1      -5.591  15.840  68.101  0.00  0.00    +0.010 C 
ATOM     21  C   UNL     1      -5.624  14.628  68.639  0.00  0.00    +0.183 C 
ATOM     22  O   UNL     1      -4.595  15.717  68.716  0.00  0.00    -0.293 OA
ATOM     23  C   UNL     1      -7.489  17.124  66.448  0.00  0.00    +0.063 C 
ENDROOT
BRANCH  10  24
ATOM     24  O   UNL     1      -3.899  13.565  70.094  0.00  0.00    -0.342 OA
ATOM     25  C   UNL     1      -3.825  13.707  71.586  0.00  0.00    +0.175 C 
ENDBRANCH  10  24
BRANCH   1  27
ATOM     26  C   UNL     1      -5.265  18.237  68.686  0.00  0.00    +0.174 C 
ATOM     27  O   UNL     1      -5.231  17.079  67.733  0.00  0.00    -0.353 OA
ENDBRANCH   1  27
BRANCH  13  28
ATOM     28  O   UNL     1      -7.318   8.477  70.516  0.00  0.00    -0.446 OA
BRANCH  28  29
ATOM     29  C   UNL     1      -8.112   8.247  71.768  0.00  0.00    +0.350 C 
ATOM     30  O   UNL     1      -7.680   8.881  73.056  0.00  0.00    -0.247 OA
BRANCH  29  31
ATOM     31  C   UNL     1      -9.338   7.385  71.729  0.00  0.00    +0.274 C 
ATOM     32  O   UNL     1      -9.483   6.243  72.692  0.00  0.00    -0.209 OA
BRANCH  31  33
ATOM     33  C   UNL     1     -10.420   7.662  70.728  0.00  0.00    +0.162 C 
BRANCH  33  34
ATOM     34  C   UNL     1     -11.818   7.940  71.192  0.00  0.00    +0.001 A 
ATOM     35  C   UNL     1     -12.191   9.313  71.667  0.00  0.00    -0.003 A 
ATOM     36  C   UNL     1     -13.591   9.593  72.130  0.00  0.00    -0.000 A 
ATOM     37  C   UNL     1     -14.617   8.499  72.119  0.00  0.00    -0.000 A 
ATOM     38  C   UNL     1     -14.243   7.125  71.644  0.00  0.00    -0.000 A 
ATOM     39  C   UNL     1     -12.844   6.847  71.181  0.00  0.00    -0.003 A 
ENDBRANCH  33  34
BRANCH  33  40
ATOM     40  N   UNL     1     -10.102   7.660  69.262  0.00  0.00    -0.163 NA
ATOM     41  C   UNL     1      -9.867   6.362  68.547  0.00  0.00    +0.421 C 
ATOM     42  O   UNL     1      -9.949   5.066  69.299  0.00  0.00    -0.225 OA
BRANCH  41  43
ATOM     43  O   UNL     1      -9.549   6.359  67.081  0.00  0.00    -0.441 OA
BRANCH  43  44
ATOM     44  C   UNL     1      -8.515   7.299  66.536  0.00  0.00    +0.138 C 
ATOM     45  C   UNL     1      -7.481   8.238  65.990  0.00  0.00    +0.044 C 
ATOM     46  C   UNL     1      -9.598   8.123  65.906  0.00  0.00    +0.044 C 
ATOM     47  C   UNL     1      -7.432   6.473  67.166  0.00  0.00    +0.044 C 
ENDBRANCH  43  44
ENDBRANCH  41  43
ENDBRANCH  33  40
ENDBRANCH  31  33
ENDBRANCH  29  31
ENDBRANCH  28  29
ENDBRANCH  13  28
BRANCH  16  48
ATOM     48  O   UNL     1      -9.687  13.721  66.780  0.00  0.00    -0.451 OA
BRANCH  48  49
ATOM     49  C   UNL     1     -10.271  12.928  65.648  0.00  0.00    +0.317 C 
ATOM     50  O   UNL     1     -11.624  13.280  65.104  0.00  0.00    -0.250 OA
ATOM     51  C   UNL     1      -9.503  11.782  65.059  0.00  0.00    +0.121 C 
ENDBRANCH  48  49
ENDBRANCH  16  48
BRANCH   4  52
ATOM     52  O   UNL     1     -10.038  12.845  66.985  0.00  0.00    -0.446 OA
BRANCH  52  53
ATOM     53  C   UNL     1     -11.245  12.461  67.788  0.00  0.00    +0.341 C 
ATOM     54  O   UNL     1     -12.000  11.208  67.453  0.00  0.00    -0.245 OA
BRANCH  53  55
ATOM     55  C   UNL     1     -11.698  13.328  68.925  0.00  0.00    +0.076 A 
ATOM     56  C   UNL     1     -11.824  14.810  68.733  0.00  0.00    +0.006 A 
ATOM     57  C   UNL     1     -12.277  15.677  69.871  0.00  0.00    +0.000 A 
ATOM     58  C   UNL     1     -12.603  15.062  71.199  0.00  0.00    +0.000 A 
ATOM     59  C   UNL     1     -12.476  13.579  71.390  0.00  0.00    +0.000 A 
ATOM     60  C   UNL     1     -12.024  12.713  70.253  0.00  0.00    +0.006 A 
ENDBRANCH  53  55
ENDBRANCH  52  53
ENDBRANCH   4  52
TORSDOF 15
ENDMDL
