MODEL 1
REMARK VINA RESULT:      -6.0      0.000      0.000
REMARK  Name = 
REMARK  12 active torsions:
REMARK  status: ('A' for Active; 'I' for Inactive)
REMARK    1  A    between atoms: N_4  and  C_5
REMARK    2  A    between atoms: N_4  and  C_10
REMARK    3  A    between atoms: C_5  and  C_6
REMARK    4  A    between atoms: C_6  and  C_8
REMARK    5  A    between atoms: C_13  and  C_14
REMARK    6  A    between atoms: N_16  and  C_17
REMARK    7  A    between atoms: C_17  and  C_18
REMARK    8  A    between atoms: C_18  and  C_20
REMARK    9  A    between atoms: C_24  and  C_25
REMARK   10  A    between atoms: N_27  and  C_28
REMARK   11  A    between atoms: C_28  and  C_29
REMARK   12  A    between atoms: C_29  and  C_31
REMARK                            x       y       z     vdW  Elec       q    Type
REMARK                         _______ _______ _______ _____ _____    ______ ____
ROOT
ATOM      1  C   UNL     1      -7.880  15.979  68.202  0.00  0.00    +0.065 A 
ATOM      2  C   UNL     1      -7.620  14.628  68.389  0.00  0.00    +0.049 A 
ATOM      3  I   UNL     1      -5.664  13.919  68.266  0.00  0.00    -0.041 I 
ATOM      4  C   UNL     1      -8.638  13.680  68.377  0.00  0.00    +0.067 A 
ATOM      5  C   UNL     1      -9.884  14.162  68.740  0.00  0.00    +0.040 A 
ATOM      6  I   UNL     1     -11.615  12.960  68.569  0.00  0.00    -0.042 I 
ATOM      7  C   UNL     1     -10.113  15.520  68.922  0.00  0.00    +0.067 A 
ATOM      8  C   UNL     1      -9.150  16.416  68.476  0.00  0.00    +0.049 A 
ATOM      9  I   UNL     1      -9.844  18.286  67.816  0.00  0.00    -0.041 I 
ENDROOT
BRANCH   1  12
ATOM     10  C   UNL     1      -6.478  17.245  66.457  0.00  0.00    +0.095 C 
ATOM     11  C   UNL     1      -6.659  17.207  66.547  0.00  0.00    +0.230 C 
ATOM     12  N   UNL     1      -6.863  16.928  67.876  0.00  0.00    -0.255 N 
ATOM     13  O   UNL     1      -7.313  17.722  65.711  0.00  0.00    -0.275 OA
BRANCH  12  14
ATOM     14  C   UNL     1      -6.699  17.981  68.811  0.00  0.00    +0.134 C 
BRANCH  14  15
ATOM     15  C   UNL     1      -5.762  17.449  70.059  0.00  0.00    +0.205 C 
ATOM     16  O   UNL     1      -4.433  17.531  69.314  0.00  0.00    -0.218 OA
BRANCH  15  17
ATOM     17  C   UNL     1      -5.607  18.975  70.677  0.00  0.00    +0.217 C 
ATOM     18  O   UNL     1      -5.058  18.752  71.939  0.00  0.00    -0.218 OA
ENDBRANCH  15  17
ENDBRANCH  14  15
ENDBRANCH  12  14
ENDBRANCH   1  12
BRANCH   4  19
ATOM     19  C   UNL     1      -8.516  12.441  67.624  0.00  0.00    +0.266 C 
ATOM     20  N   UNL     1      -8.630  11.226  68.336  0.00  0.00    -0.199 NA
ATOM     21  O   UNL     1      -8.955  12.431  66.443  0.00  0.00    -0.268 OA
BRANCH  20  22
ATOM     22  C   UNL     1      -9.077   9.978  67.891  0.00  0.00    +0.151 C 
BRANCH  22  23
ATOM     23  C   UNL     1      -8.923   8.890  69.127  0.00  0.00    +0.206 C 
ATOM     24  O   UNL     1      -8.297   9.868  70.117  0.00  0.00    -0.218 OA
BRANCH  23  25
ATOM     25  C   UNL     1     -10.455   9.177  69.683  0.00  0.00    +0.217 C 
ATOM     26  O   UNL     1     -10.277   9.478  71.025  0.00  0.00    -0.218 OA
ENDBRANCH  23  25
ENDBRANCH  22  23
ENDBRANCH  20  22
ENDBRANCH   4  19
BRANCH   7  27
ATOM     27  C   UNL     1     -11.217  16.004  69.758  0.00  0.00    +0.266 C 
ATOM     28  N   UNL     1     -11.130  15.593  71.132  0.00  0.00    -0.199 NA
ATOM     29  O   UNL     1     -12.389  16.137  69.335  0.00  0.00    -0.268 OA
BRANCH  28  30
ATOM     30  C   UNL     1     -11.918  16.285  72.149  0.00  0.00    +0.151 C 
BRANCH  30  31
ATOM     31  C   UNL     1     -12.275  15.016  73.146  0.00  0.00    +0.206 C 
ATOM     32  O   UNL     1     -12.920  15.932  74.176  0.00  0.00    -0.218 OA
BRANCH  31  33
ATOM     33  C   UNL     1     -13.719  14.697  72.409  0.00  0.00    +0.217 C 
ATOM     34  O   UNL     1     -14.373  15.908  72.368  0.00  0.00    -0.218 OA
ENDBRANCH  31  33
ENDBRANCH  30  31
ENDBRANCH  28  30
ENDBRANCH   7  27
TORSDOF 12
ENDMDL
MODEL 2
REMARK VINA RESULT:      -5.8      1.946      5.922
REMARK  Name = 
REMARK  12 active torsions:
REMARK  status: ('A' for Active; 'I' for Inactive)
REMARK    1  A    between atoms: N_4  and  C_5
REMARK    2  A    between atoms: N_4  and  C_10
REMARK    3  A    between atoms: C_5  and  C_6
REMARK    4  A    between atoms: C_6  and  C_8
REMARK    5  A    between atoms: C_13  and  C_14
REMARK    6  A    between atoms: N_16  and  C_17
REMARK    7  A    between atoms: C_17  and  C_18
REMARK    8  A    between atoms: C_18  and  C_20
REMARK    9  A    between atoms: C_24  and  C_25
REMARK   10  A    between atoms: N_27  and  C_28
REMARK   11  A    between atoms: C_28  and  C_29
REMARK   12  A    between atoms: C_29  and  C_31
REMARK                            x       y       z     vdW  Elec       q    Type
REMARK                         _______ _______ _______ _____ _____    ______ ____
ROOT
ATOM      1  C   UNL     1      -8.382  15.385  67.978  0.00  0.00    +0.065 A 
ATOM      2  C   UNL     1      -9.715  15.751  68.117  0.00  0.00    +0.049 A 
ATOM      3  I   UNL     1     -10.247  17.766  68.098  0.00  0.00    -0.041 I 
ATOM      4  C   UNL     1     -10.679  14.847  68.550  0.00  0.00    +0.067 A 
ATOM      5  C   UNL     1     -10.391  13.519  68.283  0.00  0.00    +0.040 A 
ATOM      6  I   UNL     1     -11.596  11.962  69.053  0.00  0.00    -0.042 I 
ATOM      7  C   UNL     1      -9.153  13.130  67.787  0.00  0.00    +0.067 A 
ATOM      8  C   UNL     1      -8.114  14.050  67.813  0.00  0.00    +0.049 A 
ATOM      9  I   UNL     1      -6.178  13.272  68.057  0.00  0.00    -0.041 I 
ENDROOT
BRANCH   1  12
ATOM     10  C   UNL     1      -6.839  16.854  66.540  0.00  0.00    +0.095 C 
ATOM     11  C   UNL     1      -7.026  16.808  66.612  0.00  0.00    +0.230 C 
ATOM     12  N   UNL     1      -7.323  16.336  67.867  0.00  0.00    -0.255 N 
ATOM     13  O   UNL     1      -7.611  17.469  65.828  0.00  0.00    -0.275 OA
BRANCH  12  14
ATOM     14  C   UNL     1      -7.194  17.227  68.962  0.00  0.00    +0.134 C 
BRANCH  14  15
ATOM     15  C   UNL     1      -5.607  17.639  69.135  0.00  0.00    +0.205 C 
ATOM     16  O   UNL     1      -5.847  18.839  70.045  0.00  0.00    -0.218 OA
BRANCH  15  17
ATOM     17  C   UNL     1      -5.411  16.604  70.409  0.00  0.00    +0.217 C 
ATOM     18  O   UNL     1      -5.106  17.458  71.468  0.00  0.00    -0.218 OA
ENDBRANCH  15  17
ENDBRANCH  14  15
ENDBRANCH  12  14
ENDBRANCH   1  12
BRANCH   4  19
ATOM     19  C   UNL     1     -11.651  15.201  69.574  0.00  0.00    +0.266 C 
ATOM     20  N   UNL     1     -11.177  15.386  70.892  0.00  0.00    -0.199 NA
ATOM     21  O   UNL     1     -12.622  15.925  69.230  0.00  0.00    -0.268 OA
BRANCH  20  22
ATOM     22  C   UNL     1     -11.690  16.196  71.911  0.00  0.00    +0.151 C 
BRANCH  22  23
ATOM     23  C   UNL     1     -12.403  15.227  73.045  0.00  0.00    +0.206 C 
ATOM     24  O   UNL     1     -12.536  16.309  74.113  0.00  0.00    -0.218 OA
BRANCH  23  25
ATOM     25  C   UNL     1     -13.923  15.508  72.452  0.00  0.00    +0.217 C 
ATOM     26  O   UNL     1     -14.363  14.258  72.044  0.00  0.00    -0.218 OA
ENDBRANCH  23  25
ENDBRANCH  22  23
ENDBRANCH  20  22
ENDBRANCH   4  19
BRANCH   7  27
ATOM     27  C   UNL     1      -8.987  11.874  67.049  0.00  0.00    +0.266 C 
ATOM     28  N   UNL     1      -9.691  11.837  65.797  0.00  0.00    -0.199 NA
ATOM     29  O   UNL     1      -8.877  10.758  67.608  0.00  0.00    -0.268 OA
BRANCH  28  30
ATOM     30  C   UNL     1      -9.332  10.841  64.789  0.00  0.00    +0.151 C 
BRANCH  30  31
ATOM     31  C   UNL     1      -9.795  11.641  63.419  0.00  0.00    +0.206 C 
ATOM     32  O   UNL     1      -9.872  10.349  62.620  0.00  0.00    -0.218 OA
BRANCH  31  33
ATOM     33  C   UNL     1     -11.401  11.596  63.799  0.00  0.00    +0.217 C 
ATOM     34  O   UNL     1     -11.938  12.722  63.214  0.00  0.00    -0.218 OA
ENDBRANCH  31  33
ENDBRANCH  30  31
ENDBRANCH  28  30
ENDBRANCH   7  27
TORSDOF 12
ENDMDL
MODEL 3
REMARK VINA RESULT:      -5.6      2.814      6.045
REMARK  Name = 
REMARK  12 active torsions:
REMARK  status: ('A' for Active; 'I' for Inactive)
REMARK    1  A    between atoms: N_4  and  C_5
REMARK    2  A    between atoms: N_4  and  C_10
REMARK    3  A    between atoms: C_5  and  C_6
REMARK    4  A    between atoms: C_6  and  C_8
REMARK    5  A    between atoms: C_13  and  C_14
REMARK    6  A    between atoms: N_16  and  C_17
REMARK    7  A    between atoms: C_17  and  C_18
REMARK    8  A    between atoms: C_18  and  C_20
REMARK    9  A    between atoms: C_24  and  C_25
REMARK   10  A    between atoms: N_27  and  C_28
REMARK   11  A    between atoms: C_28  and  C_29
REMARK   12  A    between atoms: C_29  and  C_31
REMARK                            x       y       z     vdW  Elec       q    Type
REMARK                         _______ _______ _______ _____ _____    ______ ____
ROOT
ATOM      1  C   UNL     1      -9.545  13.235  67.224  0.00  0.00    +0.065 A 
ATOM      2  C   UNL     1      -8.750  12.207  66.734  0.00  0.00    +0.049 A 
ATOM      3  I   UNL     1      -9.628  10.599  65.741  0.00  0.00    -0.041 I 
ATOM      4  C   UNL     1      -7.423  12.062  67.122  0.00  0.00    +0.067 A 
ATOM      5  C   UNL     1      -6.802  13.235  67.517  0.00  0.00    +0.040 A 
ATOM      6  I   UNL     1      -4.865  13.217  68.364  0.00  0.00    -0.042 I 
ATOM      7  C   UNL     1      -7.516  14.416  67.679  0.00  0.00    +0.067 A 
ATOM      8  C   UNL     1      -8.903  14.349  67.701  0.00  0.00    +0.049 A 
ATOM      9  I   UNL     1      -9.891  15.772  68.889  0.00  0.00    -0.041 I 
ENDROOT
BRANCH   1  12
ATOM     10  C   UNL     1     -11.846  12.494  68.099  0.00  0.00    +0.095 C 
ATOM     11  C   UNL     1     -11.673  12.603  68.122  0.00  0.00    +0.230 C 
ATOM     12  N   UNL     1     -10.969  13.232  67.124  0.00  0.00    -0.255 N 
ATOM     13  O   UNL     1     -11.822  12.813  69.274  0.00  0.00    -0.275 OA
BRANCH  12  14
ATOM     14  C   UNL     1     -11.536  14.391  66.539  0.00  0.00    +0.134 C 
BRANCH  14  15
ATOM     15  C   UNL     1     -11.189  14.403  64.926  0.00  0.00    +0.205 C 
ATOM     16  O   UNL     1     -12.624  14.611  64.451  0.00  0.00    -0.218 OA
BRANCH  15  17
ATOM     17  C   UNL     1     -10.869  16.025  64.942  0.00  0.00    +0.217 C 
ATOM     18  O   UNL     1     -11.655  16.514  63.899  0.00  0.00    -0.218 OA
ENDBRANCH  15  17
ENDBRANCH  14  15
ENDBRANCH  12  14
ENDBRANCH   1  12
BRANCH   4  19
ATOM     19  C   UNL     1      -6.880  10.770  67.516  0.00  0.00    +0.266 C 
ATOM     20  N   UNL     1      -7.484  10.112  68.610  0.00  0.00    -0.199 NA
ATOM     21  O   UNL     1      -6.427  10.027  66.606  0.00  0.00    -0.268 OA
BRANCH  20  22
ATOM     22  C   UNL     1      -7.571   8.742  68.879  0.00  0.00    +0.151 C 
BRANCH  22  23
ATOM     23  C   UNL     1      -8.603   8.519  70.152  0.00  0.00    +0.206 C 
ATOM     24  O   UNL     1      -7.807   9.357  71.147  0.00  0.00    -0.218 OA
BRANCH  23  25
ATOM     25  C   UNL     1      -9.558   9.797  69.710  0.00  0.00    +0.217 C 
ATOM     26  O   UNL     1     -10.798   9.225  69.467  0.00  0.00    -0.218 OA
ENDBRANCH  23  25
ENDBRANCH  22  23
ENDBRANCH  20  22
ENDBRANCH   4  19
BRANCH   7  27
ATOM     27  C   UNL     1      -6.857  15.723  67.602  0.00  0.00    +0.266 C 
ATOM     28  N   UNL     1      -6.600  16.323  68.882  0.00  0.00    -0.199 NA
ATOM     29  O   UNL     1      -7.076  16.548  66.684  0.00  0.00    -0.268 OA
BRANCH  28  30
ATOM     30  C   UNL     1      -5.634  17.414  68.993  0.00  0.00    +0.151 C 
BRANCH  30  31
ATOM     31  C   UNL     1      -5.330  17.361  70.617  0.00  0.00    +0.206 C 
ATOM     32  O   UNL     1      -3.833  17.210  70.390  0.00  0.00    -0.218 OA
BRANCH  31  33
ATOM     33  C   UNL     1      -5.222  19.003  70.765  0.00  0.00    +0.217 C 
ATOM     34  O   UNL     1      -4.756  19.216  72.043  0.00  0.00    -0.218 OA
ENDBRANCH  31  33
ENDBRANCH  30  31
ENDBRANCH  28  30
ENDBRANCH   7  27
TORSDOF 12
ENDMDL
MODEL 4
REMARK VINA RESULT:      -5.6      2.046      6.179
REMARK  Name = 
REMARK  12 active torsions:
REMARK  status: ('A' for Active; 'I' for Inactive)
REMARK    1  A    between atoms: N_4  and  C_5
REMARK    2  A    between atoms: N_4  and  C_10
REMARK    3  A    between atoms: C_5  and  C_6
REMARK    4  A    between atoms: C_6  and  C_8
REMARK    5  A    between atoms: C_13  and  C_14
REMARK    6  A    between atoms: N_16  and  C_17
REMARK    7  A    between atoms: C_17  and  C_18
REMARK    8  A    between atoms: C_18  and  C_20
REMARK    9  A    between atoms: C_24  and  C_25
REMARK   10  A    between atoms: N_27  and  C_28
REMARK   11  A    between atoms: C_28  and  C_29
REMARK   12  A    between atoms: C_29  and  C_31
REMARK                            x       y       z     vdW  Elec       q    Type
REMARK                         _______ _______ _______ _____ _____    ______ ____
ROOT
ATOM      1  C   UNL     1      -8.221  15.529  68.251  0.00  0.00    +0.065 A 
ATOM      2  C   UNL     1      -9.547  15.930  68.358  0.00  0.00    +0.049 A 
ATOM      3  I   UNL     1     -10.011  17.957  68.495  0.00  0.00    -0.041 I 
ATOM      4  C   UNL     1     -10.561  15.028  68.660  0.00  0.00    +0.067 A 
ATOM      5  C   UNL     1     -10.302  13.718  68.289  0.00  0.00    +0.040 A 
ATOM      6  I   UNL     1     -11.595  12.145  68.856  0.00  0.00    -0.042 I 
ATOM      7  C   UNL     1      -9.054  13.330  67.820  0.00  0.00    +0.067 A 
ATOM      8  C   UNL     1      -7.988  14.205  67.979  0.00  0.00    +0.049 A 
ATOM      9  I   UNL     1      -6.093  13.338  68.245  0.00  0.00    -0.041 I 
ENDROOT
BRANCH   1  12
ATOM     10  C   UNL     1      -6.451  16.863  69.554  0.00  0.00    +0.095 C 
ATOM     11  C   UNL     1      -6.527  16.683  69.488  0.00  0.00    +0.230 C 
ATOM     12  N   UNL     1      -7.128  16.447  68.277  0.00  0.00    -0.255 N 
ATOM     13  O   UNL     1      -5.897  16.017  70.232  0.00  0.00    -0.275 OA
BRANCH  12  14
ATOM     14  C   UNL     1      -6.311  16.445  67.118  0.00  0.00    +0.134 C 
BRANCH  14  15
ATOM     15  C   UNL     1      -6.926  17.519  66.027  0.00  0.00    +0.205 C 
ATOM     16  O   UNL     1      -6.859  18.738  66.941  0.00  0.00    -0.218 OA
BRANCH  15  17
ATOM     17  C   UNL     1      -5.433  17.815  65.381  0.00  0.00    +0.217 C 
ATOM     18  O   UNL     1      -4.623  16.866  66.004  0.00  0.00    -0.218 OA
ENDBRANCH  15  17
ENDBRANCH  14  15
ENDBRANCH  12  14
ENDBRANCH   1  12
BRANCH   4  19
ATOM     19  C   UNL     1     -11.571  15.325  69.665  0.00  0.00    +0.266 C 
ATOM     20  N   UNL     1     -11.142  15.479  71.002  0.00  0.00    -0.199 NA
ATOM     21  O   UNL     1     -12.549  16.036  69.313  0.00  0.00    -0.268 OA
BRANCH  20  22
ATOM     22  C   UNL     1     -11.706  16.243  72.029  0.00  0.00    +0.151 C 
BRANCH  22  23
ATOM     23  C   UNL     1     -12.220  15.222  73.224  0.00  0.00    +0.206 C 
ATOM     24  O   UNL     1     -12.633  16.320  74.200  0.00  0.00    -0.218 OA
BRANCH  23  25
ATOM     25  C   UNL     1     -13.742  15.102  72.584  0.00  0.00    +0.217 C 
ATOM     26  O   UNL     1     -14.015  13.743  72.615  0.00  0.00    -0.218 OA
ENDBRANCH  23  25
ENDBRANCH  22  23
ENDBRANCH  20  22
ENDBRANCH   4  19
BRANCH   7  27
ATOM     27  C   UNL     1      -8.890  12.139  66.980  0.00  0.00    +0.266 C 
ATOM     28  N   UNL     1      -9.803  12.079  65.872  0.00  0.00    -0.199 NA
ATOM     29  O   UNL     1      -8.561  11.019  67.435  0.00  0.00    -0.268 OA
BRANCH  28  30
ATOM     30  C   UNL     1      -9.528  11.181  64.752  0.00  0.00    +0.151 C 
BRANCH  30  31
ATOM     31  C   UNL     1     -10.056  12.120  63.498  0.00  0.00    +0.206 C 
ATOM     32  O   UNL     1      -9.760  11.028  62.480  0.00  0.00    -0.218 OA
BRANCH  31  33
ATOM     33  C   UNL     1     -11.631  11.651  63.661  0.00  0.00    +0.217 C 
ATOM     34  O   UNL     1     -12.371  12.757  63.303  0.00  0.00    -0.218 OA
ENDBRANCH  31  33
ENDBRANCH  30  31
ENDBRANCH  28  30
ENDBRANCH   7  27
TORSDOF 12
ENDMDL
MODEL 5
REMARK VINA RESULT:      -5.5      3.323      6.095
REMARK  Name = 
REMARK  12 active torsions:
REMARK  status: ('A' for Active; 'I' for Inactive)
REMARK    1  A    between atoms: N_4  and  C_5
REMARK    2  A    between atoms: N_4  and  C_10
REMARK    3  A    between atoms: C_5  and  C_6
REMARK    4  A    between atoms: C_6  and  C_8
REMARK    5  A    between atoms: C_13  and  C_14
REMARK    6  A    between atoms: N_16  and  C_17
REMARK    7  A    between atoms: C_17  and  C_18
REMARK    8  A    between atoms: C_18  and  C_20
REMARK    9  A    between atoms: C_24  and  C_25
REMARK   10  A    between atoms: N_27  and  C_28
REMARK   11  A    between atoms: C_28  and  C_29
REMARK   12  A    between atoms: C_29  and  C_31
REMARK                            x       y       z     vdW  Elec       q    Type
REMARK                         _______ _______ _______ _____ _____    ______ ____
ROOT
ATOM      1  C   UNL     1      -9.764  12.742  67.589  0.00  0.00    +0.065 A 
ATOM      2  C   UNL     1      -8.581  12.181  67.124  0.00  0.00    +0.049 A 
ATOM      3  I   UNL     1      -8.633  10.415  66.019  0.00  0.00    -0.041 I 
ATOM      4  C   UNL     1      -7.341  12.592  67.601  0.00  0.00    +0.067 A 
ATOM      5  C   UNL     1      -7.304  13.892  68.077  0.00  0.00    +0.040 A 
ATOM      6  I   UNL     1      -5.592  14.650  69.059  0.00  0.00    -0.042 I 
ATOM      7  C   UNL     1      -8.463  14.644  68.226  0.00  0.00    +0.067 A 
ATOM      8  C   UNL     1      -9.686  13.992  68.147  0.00  0.00    +0.049 A 
ATOM      9  I   UNL     1     -11.248  14.786  69.306  0.00  0.00    -0.041 I 
ENDROOT
BRANCH   1  12
ATOM     10  C   UNL     1     -11.616  11.124  68.339  0.00  0.00    +0.095 C 
ATOM     11  C   UNL     1     -11.506  11.296  68.368  0.00  0.00    +0.230 C 
ATOM     12  N   UNL     1     -11.042  12.138  67.388  0.00  0.00    -0.255 N 
ATOM     13  O   UNL     1     -11.833  11.452  69.492  0.00  0.00    -0.275 OA
BRANCH  12  14
ATOM     14  C   UNL     1     -11.985  12.938  66.695  0.00  0.00    +0.134 C 
BRANCH  14  15
ATOM     15  C   UNL     1     -11.748  12.763  65.072  0.00  0.00    +0.205 C 
ATOM     16  O   UNL     1     -13.224  12.666  64.700  0.00  0.00    -0.218 OA
BRANCH  15  17
ATOM     17  C   UNL     1     -11.708  14.398  64.836  0.00  0.00    +0.217 C 
ATOM     18  O   UNL     1     -12.743  14.614  63.927  0.00  0.00    -0.218 OA
ENDBRANCH  15  17
ENDBRANCH  14  15
ENDBRANCH  12  14
ENDBRANCH   1  12
BRANCH   4  19
ATOM     19  C   UNL     1      -6.318  11.634  67.991  0.00  0.00    +0.266 C 
ATOM     20  N   UNL     1      -6.647  10.696  68.995  0.00  0.00    -0.199 NA
ATOM     21  O   UNL     1      -5.526  11.232  67.098  0.00  0.00    -0.268 OA
BRANCH  20  22
ATOM     22  C   UNL     1      -6.146   9.406  69.198  0.00  0.00    +0.151 C 
BRANCH  22  23
ATOM     23  C   UNL     1      -7.075   8.653  70.340  0.00  0.00    +0.206 C 
ATOM     24  O   UNL     1      -6.701   9.588  71.486  0.00  0.00    -0.218 OA
BRANCH  23  25
ATOM     25  C   UNL     1      -8.421   9.534  69.948  0.00  0.00    +0.217 C 
ATOM     26  O   UNL     1      -9.316   9.256  70.970  0.00  0.00    -0.218 OA
ENDBRANCH  23  25
ENDBRANCH  22  23
ENDBRANCH  20  22
ENDBRANCH   4  19
BRANCH   7  27
ATOM     27  C   UNL     1      -8.426  16.110  68.237  0.00  0.00    +0.266 C 
ATOM     28  N   UNL     1      -8.364  16.702  66.930  0.00  0.00    -0.199 NA
ATOM     29  O   UNL     1      -7.847  16.774  69.128  0.00  0.00    -0.268 OA
BRANCH  28  30
ATOM     30  C   UNL     1      -8.698  18.114  66.753  0.00  0.00    +0.151 C 
BRANCH  30  31
ATOM     31  C   UNL     1     -10.343  18.004  66.632  0.00  0.00    +0.206 C 
ATOM     32  O   UNL     1     -10.541  18.557  68.036  0.00  0.00    -0.218 OA
BRANCH  31  33
ATOM     33  C   UNL     1     -10.504  19.494  65.937  0.00  0.00    +0.217 C 
ATOM     34  O   UNL     1     -10.136  20.387  66.919  0.00  0.00    -0.218 OA
ENDBRANCH  31  33
ENDBRANCH  30  31
ENDBRANCH  28  30
ENDBRANCH   7  27
TORSDOF 12
ENDMDL
MODEL 6
REMARK VINA RESULT:      -5.5      2.978      6.162
REMARK  Name = 
REMARK  12 active torsions:
REMARK  status: ('A' for Active; 'I' for Inactive)
REMARK    1  A    between atoms: N_4  and  C_5
REMARK    2  A    between atoms: N_4  and  C_10
REMARK    3  A    between atoms: C_5  and  C_6
REMARK    4  A    between atoms: C_6  and  C_8
REMARK    5  A    between atoms: C_13  and  C_14
REMARK    6  A    between atoms: N_16  and  C_17
REMARK    7  A    between atoms: C_17  and  C_18
REMARK    8  A    between atoms: C_18  and  C_20
REMARK    9  A    between atoms: C_24  and  C_25
REMARK   10  A    between atoms: N_27  and  C_28
REMARK   11  A    between atoms: C_28  and  C_29
REMARK   12  A    between atoms: C_29  and  C_31
REMARK                            x       y       z     vdW  Elec       q    Type
REMARK                         _______ _______ _______ _____ _____    ______ ____
ROOT
ATOM      1  C   UNL     1      -9.513  13.403  67.469  0.00  0.00    +0.065 A 
ATOM      2  C   UNL     1      -8.572  12.487  67.016  0.00  0.00    +0.049 A 
ATOM      3  I   UNL     1      -9.168  10.897  65.808  0.00  0.00    -0.041 I 
ATOM      4  C   UNL     1      -7.295  12.422  67.562  0.00  0.00    +0.067 A 
ATOM      5  C   UNL     1      -6.839  13.607  68.115  0.00  0.00    +0.040 A 
ATOM      6  I   UNL     1      -5.028  13.682  69.203  0.00  0.00    -0.042 I 
ATOM      7  C   UNL     1      -7.674  14.707  68.265  0.00  0.00    +0.067 A 
ATOM      8  C   UNL     1      -9.041  14.524  68.102  0.00  0.00    +0.049 A 
ATOM      9  I   UNL     1     -10.296  15.760  69.247  0.00  0.00    -0.041 I 
ENDROOT
BRANCH   1  12
ATOM     10  C   UNL     1     -11.832  12.428  68.003  0.00  0.00    +0.095 C 
ATOM     11  C   UNL     1     -11.673  12.549  68.053  0.00  0.00    +0.230 C 
ATOM     12  N   UNL     1     -10.908  13.288  67.185  0.00  0.00    -0.255 N 
ATOM     13  O   UNL     1     -11.983  12.681  69.185  0.00  0.00    -0.275 OA
BRANCH  12  14
ATOM     14  C   UNL     1     -11.497  14.429  66.584  0.00  0.00    +0.134 C 
BRANCH  14  15
ATOM     15  C   UNL     1     -11.156  14.422  64.971  0.00  0.00    +0.205 C 
ATOM     16  O   UNL     1     -12.594  14.610  64.498  0.00  0.00    -0.218 OA
BRANCH  15  17
ATOM     17  C   UNL     1     -10.851  16.047  64.963  0.00  0.00    +0.217 C 
ATOM     18  O   UNL     1     -11.639  16.513  63.911  0.00  0.00    -0.218 OA
ENDBRANCH  15  17
ENDBRANCH  14  15
ENDBRANCH  12  14
ENDBRANCH   1  12
BRANCH   4  19
ATOM     19  C   UNL     1      -6.688  11.153  67.933  0.00  0.00    +0.266 C 
ATOM     20  N   UNL     1      -7.383  10.336  68.853  0.00  0.00    -0.199 NA
ATOM     21  O   UNL     1      -6.020  10.547  67.052  0.00  0.00    -0.268 OA
BRANCH  20  22
ATOM     22  C   UNL     1      -7.366   8.945  68.989  0.00  0.00    +0.151 C 
BRANCH  22  23
ATOM     23  C   UNL     1      -8.465   8.515  70.147  0.00  0.00    +0.206 C 
ATOM     24  O   UNL     1      -7.819   9.309  71.278  0.00  0.00    -0.218 OA
BRANCH  23  25
ATOM     25  C   UNL     1      -9.492   9.751  69.752  0.00  0.00    +0.217 C 
ATOM     26  O   UNL     1     -10.579   9.115  69.172  0.00  0.00    -0.218 OA
ENDBRANCH  23  25
ENDBRANCH  22  23
ENDBRANCH  20  22
ENDBRANCH   4  19
BRANCH   7  27
ATOM     27  C   UNL     1      -7.135  16.067  68.364  0.00  0.00    +0.266 C 
ATOM     28  N   UNL     1      -6.462  16.515  67.177  0.00  0.00    -0.199 NA
ATOM     29  O   UNL     1      -6.675  16.546  69.427  0.00  0.00    -0.268 OA
BRANCH  28  30
ATOM     30  C   UNL     1      -6.210  17.941  66.978  0.00  0.00    +0.151 C 
BRANCH  30  31
ATOM     31  C   UNL     1      -7.713  18.431  66.496  0.00  0.00    +0.206 C 
ATOM     32  O   UNL     1      -7.847  19.380  67.678  0.00  0.00    -0.218 OA
BRANCH  31  33
ATOM     33  C   UNL     1      -7.133  19.620  65.506  0.00  0.00    +0.217 C 
ATOM     34  O   UNL     1      -6.422  18.955  64.531  0.00  0.00    -0.218 OA
ENDBRANCH  31  33
ENDBRANCH  30  31
ENDBRANCH  28  30
ENDBRANCH   7  27
TORSDOF 12
ENDMDL
MODEL 7
REMARK VINA RESULT:      -5.5      3.136      7.756
REMARK  Name = 
REMARK  12 active torsions:
REMARK  status: ('A' for Active; 'I' for Inactive)
REMARK    1  A    between atoms: N_4  and  C_5
REMARK    2  A    between atoms: N_4  and  C_10
REMARK    3  A    between atoms: C_5  and  C_6
REMARK    4  A    between atoms: C_6  and  C_8
REMARK    5  A    between atoms: C_13  and  C_14
REMARK    6  A    between atoms: N_16  and  C_17
REMARK    7  A    between atoms: C_17  and  C_18
REMARK    8  A    between atoms: C_18  and  C_20
REMARK    9  A    between atoms: C_24  and  C_25
REMARK   10  A    between atoms: N_27  and  C_28
REMARK   11  A    between atoms: C_28  and  C_29
REMARK   12  A    between atoms: C_29  and  C_31
REMARK                            x       y       z     vdW  Elec       q    Type
REMARK                         _______ _______ _______ _____ _____    ______ ____
ROOT
ATOM      1  C   UNL     1      -9.058  15.085  67.923  0.00  0.00    +0.065 A 
ATOM      2  C   UNL     1      -8.632  16.404  68.016  0.00  0.00    +0.049 A 
ATOM      3  I   UNL     1     -10.025  17.952  67.945  0.00  0.00    -0.041 I 
ATOM      4  C   UNL     1      -7.293  16.751  67.872  0.00  0.00    +0.067 A 
ATOM      5  C   UNL     1      -6.395  15.750  68.204  0.00  0.00    +0.040 A 
ATOM      6  I   UNL     1      -4.325  15.973  67.842  0.00  0.00    -0.042 I 
ATOM      7  C   UNL     1      -6.820  14.456  68.480  0.00  0.00    +0.067 A 
ATOM      8  C   UNL     1      -8.125  14.108  68.160  0.00  0.00    +0.049 A 
ATOM      9  I   UNL     1      -8.455  12.106  67.614  0.00  0.00    -0.041 I 
ENDROOT
BRANCH   1  12
ATOM     10  C   UNL     1     -11.320  14.308  68.867  0.00  0.00    +0.095 C 
ATOM     11  C   UNL     1     -11.173  14.451  68.850  0.00  0.00    +0.230 C 
ATOM     12  N   UNL     1     -10.425  14.721  67.730  0.00  0.00    -0.255 N 
ATOM     13  O   UNL     1     -11.545  15.103  69.761  0.00  0.00    -0.275 OA
BRANCH  12  14
ATOM     14  C   UNL     1     -11.069  15.352  66.636  0.00  0.00    +0.134 C 
BRANCH  14  15
ATOM     15  C   UNL     1     -10.508  14.694  65.231  0.00  0.00    +0.205 C 
ATOM     16  O   UNL     1     -11.313  13.401  65.323  0.00  0.00    -0.218 OA
BRANCH  15  17
ATOM     17  C   UNL     1     -11.671  15.454  64.336  0.00  0.00    +0.217 C 
ATOM     18  O   UNL     1     -11.245  16.782  64.323  0.00  0.00    -0.218 OA
ENDBRANCH  15  17
ENDBRANCH  14  15
ENDBRANCH  12  14
ENDBRANCH   1  12
BRANCH   4  19
ATOM     19  C   UNL     1      -6.881  17.864  67.031  0.00  0.00    +0.266 C 
ATOM     20  N   UNL     1      -6.141  18.905  67.636  0.00  0.00    -0.199 NA
ATOM     21  O   UNL     1      -6.598  17.612  65.829  0.00  0.00    -0.268 OA
BRANCH  20  22
ATOM     22  C   UNL     1      -5.199  19.767  67.066  0.00  0.00    +0.151 C 
BRANCH  22  23
ATOM     23  C   UNL     1      -5.329  21.246  67.793  0.00  0.00    +0.206 C 
ATOM     24  O   UNL     1      -6.755  21.524  67.327  0.00  0.00    -0.218 OA
BRANCH  23  25
ATOM     25  C   UNL     1      -5.835  20.592  69.226  0.00  0.00    +0.217 C 
ATOM     26  O   UNL     1      -5.167  21.332  70.190  0.00  0.00    -0.218 OA
ENDBRANCH  23  25
ENDBRANCH  22  23
ENDBRANCH  20  22
ENDBRANCH   4  19
BRANCH   7  27
ATOM     27  C   UNL     1      -6.006  13.542  69.289  0.00  0.00    +0.266 C 
ATOM     28  N   UNL     1      -5.707  14.039  70.604  0.00  0.00    -0.199 NA
ATOM     29  O   UNL     1      -5.118  12.804  68.805  0.00  0.00    -0.268 OA
BRANCH  28  30
ATOM     30  C   UNL     1      -5.246  13.118  71.641  0.00  0.00    +0.151 C 
BRANCH  30  31
ATOM     31  C   UNL     1      -3.995  13.998  72.268  0.00  0.00    +0.206 C 
ATOM     32  O   UNL     1      -4.828  15.271  72.297  0.00  0.00    -0.218 OA
BRANCH  31  33
ATOM     33  C   UNL     1      -4.368  13.624  73.834  0.00  0.00    +0.217 C 
ATOM     34  O   UNL     1      -5.730  13.804  73.928  0.00  0.00    -0.218 OA
ENDBRANCH  31  33
ENDBRANCH  30  31
ENDBRANCH  28  30
ENDBRANCH   7  27
TORSDOF 12
ENDMDL
MODEL 8
REMARK VINA RESULT:      -5.4      3.876      6.545
REMARK  Name = 
REMARK  12 active torsions:
REMARK  status: ('A' for Active; 'I' for Inactive)
REMARK    1  A    between atoms: N_4  and  C_5
REMARK    2  A    between atoms: N_4  and  C_10
REMARK    3  A    between atoms: C_5  and  C_6
REMARK    4  A    between atoms: C_6  and  C_8
REMARK    5  A    between atoms: C_13  and  C_14
REMARK    6  A    between atoms: N_16  and  C_17
REMARK    7  A    between atoms: C_17  and  C_18
REMARK    8  A    between atoms: C_18  and  C_20
REMARK    9  A    between atoms: C_24  and  C_25
REMARK   10  A    between atoms: N_27  and  C_28
REMARK   11  A    between atoms: C_28  and  C_29
REMARK   12  A    between atoms: C_29  and  C_31
REMARK                            x       y       z     vdW  Elec       q    Type
REMARK                         _______ _______ _______ _____ _____    ______ ____
ROOT
ATOM      1  C   UNL     1      -9.466  12.397  66.924  0.00  0.00    +0.065 A 
ATOM      2  C   UNL     1      -8.162  11.923  66.863  0.00  0.00    +0.049 A 
ATOM      3  I   UNL     1      -7.801   9.939  66.337  0.00  0.00    -0.041 I 
ATOM      4  C   UNL     1      -7.100  12.635  67.410  0.00  0.00    +0.067 A 
ATOM      5  C   UNL     1      -7.294  14.004  67.480  0.00  0.00    +0.040 A 
ATOM      6  I   UNL     1      -5.916  15.255  68.484  0.00  0.00    -0.042 I 
ATOM      7  C   UNL     1      -8.526  14.579  67.193  0.00  0.00    +0.067 A 
ATOM      8  C   UNL     1      -9.633  13.748  67.093  0.00  0.00    +0.049 A 
ATOM      9  I   UNL     1     -11.478  14.570  67.671  0.00  0.00    -0.041 I 
ENDROOT
BRANCH   1  12
ATOM     10  C   UNL     1     -11.169  10.649  67.733  0.00  0.00    +0.095 C 
ATOM     11  C   UNL     1     -11.089  10.838  67.742  0.00  0.00    +0.230 C 
ATOM     12  N   UNL     1     -10.605  11.570  66.686  0.00  0.00    -0.255 N 
ATOM     13  O   UNL     1     -11.596  11.123  68.770  0.00  0.00    -0.275 OA
BRANCH  12  14
ATOM     14  C   UNL     1     -11.537  12.082  65.748  0.00  0.00    +0.134 C 
BRANCH  14  15
ATOM     15  C   UNL     1     -10.823  12.144  64.263  0.00  0.00    +0.205 C 
ATOM     16  O   UNL     1     -10.667  10.636  64.092  0.00  0.00    -0.218 OA
BRANCH  15  17
ATOM     17  C   UNL     1     -12.285  12.166  63.491  0.00  0.00    +0.217 C 
ATOM     18  O   UNL     1     -13.183  12.452  64.518  0.00  0.00    -0.218 OA
ENDBRANCH  15  17
ENDBRANCH  14  15
ENDBRANCH  12  14
ENDBRANCH   1  12
BRANCH   4  19
ATOM     19  C   UNL     1      -6.095  11.987  68.240  0.00  0.00    +0.266 C 
ATOM     20  N   UNL     1      -6.533  11.352  69.424  0.00  0.00    -0.199 NA
ATOM     21  O   UNL     1      -5.114  11.455  67.658  0.00  0.00    -0.268 OA
BRANCH  20  22
ATOM     22  C   UNL     1      -5.974  10.263  70.101  0.00  0.00    +0.151 C 
BRANCH  22  23
ATOM     23  C   UNL     1      -4.743  10.812  71.058  0.00  0.00    +0.206 C 
ATOM     24  O   UNL     1      -5.544  11.929  71.719  0.00  0.00    -0.218 OA
BRANCH  23  25
ATOM     25  C   UNL     1      -5.089   9.734  72.266  0.00  0.00    +0.217 C 
ATOM     26  O   UNL     1      -5.158  10.518  73.408  0.00  0.00    -0.218 OA
ENDBRANCH  23  25
ENDBRANCH  22  23
ENDBRANCH  20  22
ENDBRANCH   4  19
BRANCH   7  27
ATOM     27  C   UNL     1      -8.636  15.981  66.779  0.00  0.00    +0.266 C 
ATOM     28  N   UNL     1      -9.114  16.858  67.812  0.00  0.00    -0.199 NA
ATOM     29  O   UNL     1      -8.959  16.331  65.620  0.00  0.00    -0.268 OA
BRANCH  28  30
ATOM     30  C   UNL     1      -8.923  18.301  67.687  0.00  0.00    +0.151 C 
BRANCH  30  31
ATOM     31  C   UNL     1     -10.499  18.794  67.628  0.00  0.00    +0.206 C 
ATOM     32  O   UNL     1     -10.189  20.073  68.390  0.00  0.00    -0.218 OA
BRANCH  31  33
ATOM     33  C   UNL     1     -10.331  19.534  66.160  0.00  0.00    +0.217 C 
ATOM     34  O   UNL     1      -8.980  19.772  66.035  0.00  0.00    -0.218 OA
ENDBRANCH  31  33
ENDBRANCH  30  31
ENDBRANCH  28  30
ENDBRANCH   7  27
TORSDOF 12
ENDMDL
MODEL 9
REMARK VINA RESULT:      -5.4      3.533      7.865
REMARK  Name = 
REMARK  12 active torsions:
REMARK  status: ('A' for Active; 'I' for Inactive)
REMARK    1  A    between atoms: N_4  and  C_5
REMARK    2  A    between atoms: N_4  and  C_10
REMARK    3  A    between atoms: C_5  and  C_6
REMARK    4  A    between atoms: C_6  and  C_8
REMARK    5  A    between atoms: C_13  and  C_14
REMARK    6  A    between atoms: N_16  and  C_17
REMARK    7  A    between atoms: C_17  and  C_18
REMARK    8  A    between atoms: C_18  and  C_20
REMARK    9  A    between atoms: C_24  and  C_25
REMARK   10  A    between atoms: N_27  and  C_28
REMARK   11  A    between atoms: C_28  and  C_29
REMARK   12  A    between atoms: C_29  and  C_31
REMARK                            x       y       z     vdW  Elec       q    Type
REMARK                         _______ _______ _______ _____ _____    ______ ____
ROOT
ATOM      1  C   UNL     1      -9.675  12.537  67.570  0.00  0.00    +0.065 A 
ATOM      2  C   UNL     1      -9.879  13.713  68.281  0.00  0.00    +0.049 A 
ATOM      3  I   UNL     1     -11.813  14.439  68.555  0.00  0.00    -0.041 I 
ATOM      4  C   UNL     1      -8.831  14.578  68.577  0.00  0.00    +0.067 A 
ATOM      5  C   UNL     1      -7.585  13.977  68.652  0.00  0.00    +0.040 A 
ATOM      6  I   UNL     1      -5.825  15.129  68.859  0.00  0.00    -0.042 I 
ATOM      7  C   UNL     1      -7.395  12.652  68.280  0.00  0.00    +0.067 A 
ATOM      8  C   UNL     1      -8.408  12.013  67.579  0.00  0.00    +0.049 A 
ATOM      9  I   UNL     1      -7.811  10.537  66.208  0.00  0.00    -0.041 I 
ENDROOT
BRANCH   1  12
ATOM     10  C   UNL     1     -11.405  10.636  67.639  0.00  0.00    +0.095 C 
ATOM     11  C   UNL     1     -11.334  10.817  67.709  0.00  0.00    +0.230 C 
ATOM     12  N   UNL     1     -10.738  11.803  66.962  0.00  0.00    -0.255 N 
ATOM     13  O   UNL     1     -11.989  10.819  68.692  0.00  0.00    -0.275 OA
BRANCH  12  14
ATOM     14  C   UNL     1     -11.549  12.545  66.068  0.00  0.00    +0.134 C 
BRANCH  14  15
ATOM     15  C   UNL     1     -10.647  12.976  64.756  0.00  0.00    +0.205 C 
ATOM     16  O   UNL     1     -11.548  12.319  63.714  0.00  0.00    -0.218 OA
BRANCH  15  17
ATOM     17  C   UNL     1     -11.417  14.433  64.626  0.00  0.00    +0.217 C 
ATOM     18  O   UNL     1     -12.504  14.146  63.801  0.00  0.00    -0.218 OA
ENDBRANCH  15  17
ENDBRANCH  14  15
ENDBRANCH  12  14
ENDBRANCH   1  12
BRANCH   4  19
ATOM     19  C   UNL     1      -8.947  16.014  68.371  0.00  0.00    +0.266 C 
ATOM     20  N   UNL     1      -9.006  16.484  67.040  0.00  0.00    -0.199 NA
ATOM     21  O   UNL     1      -9.606  16.672  69.219  0.00  0.00    -0.268 OA
BRANCH  20  22
ATOM     22  C   UNL     1      -9.619  17.635  66.535  0.00  0.00    +0.151 C 
BRANCH  22  23
ATOM     23  C   UNL     1      -8.756  18.954  67.034  0.00  0.00    +0.206 C 
ATOM     24  O   UNL     1      -8.197  19.305  65.659  0.00  0.00    -0.218 OA
BRANCH  23  25
ATOM     25  C   UNL     1     -10.051  19.972  66.861  0.00  0.00    +0.217 C 
ATOM     26  O   UNL     1     -11.094  19.300  67.480  0.00  0.00    -0.218 OA
ENDBRANCH  23  25
ENDBRANCH  22  23
ENDBRANCH  20  22
ENDBRANCH   4  19
BRANCH   7  27
ATOM     27  C   UNL     1      -6.269  11.868  68.798  0.00  0.00    +0.266 C 
ATOM     28  N   UNL     1      -6.245  11.759  70.231  0.00  0.00    -0.199 NA
ATOM     29  O   UNL     1      -5.135  11.861  68.265  0.00  0.00    -0.268 OA
BRANCH  28  30
ATOM     30  C   UNL     1      -5.434  10.724  70.868  0.00  0.00    +0.151 C 
BRANCH  30  31
ATOM     31  C   UNL     1      -4.335  11.670  71.661  0.00  0.00    +0.206 C 
ATOM     32  O   UNL     1      -5.417  12.631  72.132  0.00  0.00    -0.218 OA
BRANCH  31  33
ATOM     33  C   UNL     1      -4.407  10.783  73.053  0.00  0.00    +0.217 C 
ATOM     34  O   UNL     1      -5.029  11.604  73.967  0.00  0.00    -0.218 OA
ENDBRANCH  31  33
ENDBRANCH  30  31
ENDBRANCH  28  30
ENDBRANCH   7  27
TORSDOF 12
ENDMDL
