MODEL 1
REMARK VINA RESULT:      -6.6      0.000      0.000
REMARK  Name = 
REMARK  6 active torsions:
REMARK  status: ('A' for Active; 'I' for Inactive)
REMARK    1  A    between atoms: C_2  and  N_4
REMARK    2  A    between atoms: C_11  and  O_12
REMARK    3  A    between atoms: O_12  and  C_13
REMARK    4  A    between atoms: C_13  and  C_15
REMARK    5  A    between atoms: C_15  and  C_16
REMARK    6  A    between atoms: C_15  and  C_18
REMARK                            x       y       z     vdW  Elec       q    Type
REMARK                         _______ _______ _______ _____ _____    ______ ____
ROOT
ATOM      1  N   UNL     1      -7.998  18.761  67.468  0.00  0.00    +0.289 N 
ATOM      2  C   UNL     1      -9.006  19.260  68.507  0.00  0.00    +0.062 C 
ATOM      3  C   UNL     1     -10.228  18.171  68.306  0.00  0.00    +0.099 C 
ATOM      4  C   UNL     1      -9.382  16.806  68.004  0.00  0.00    +0.180 C 
ATOM      5  C   UNL     1      -9.435  17.060  66.400  0.00  0.00    +0.099 C 
ATOM      6  C   UNL     1      -9.676  20.346  67.469  0.00  0.00    +0.061 C 
ATOM      7  C   UNL     1     -10.088  19.378  66.462  0.00  0.00    +0.061 C 
ATOM      8  C   UNL     1      -8.725  18.518  66.133  0.00  0.00    +0.062 C 
ATOM      9  C   UNL     1      -7.105  17.817  67.886  0.00  0.00    +0.170 C 
ENDROOT
BRANCH   1  11
ATOM     10  C   UNL     1      -6.792  19.625  65.636  0.00  0.00    +0.061 C 
ATOM     11  C   UNL     1      -7.174  19.845  67.018  0.00  0.00    +0.058 C 
ATOM     12  C   UNL     1      -6.576  20.817  67.848  0.00  0.00    +0.061 C 
ENDBRANCH   1  11
BRANCH   4  13
ATOM     13  O   UNL     1     -10.665  15.948  67.964  0.00  0.00    -0.452 OA
BRANCH  13  14
ATOM     14  C   UNL     1     -10.692  14.861  68.820  0.00  0.00    +0.323 C 
ATOM     15  O   UNL     1      -9.694  14.102  68.729  0.00  0.00    -0.250 OA
BRANCH  14  16
ATOM     16  C   UNL     1     -12.111  14.105  68.954  0.00  0.00    +0.154 C 
BRANCH  16  17
ATOM     17  C   UNL     1     -12.244  14.296  70.537  0.00  0.00    -0.009 A 
ATOM     18  C   UNL     1     -12.844  13.430  71.339  0.00  0.00    -0.004 A 
ATOM     19  C   UNL     1     -13.355  13.884  72.552  0.00  0.00    -0.000 A 
ATOM     20  C   UNL     1     -13.194  15.230  72.867  0.00  0.00    -0.000 A 
ATOM     21  C   UNL     1     -12.248  15.977  72.175  0.00  0.00    -0.000 A 
ATOM     22  C   UNL     1     -11.814  15.525  70.944  0.00  0.00    -0.004 A 
ENDBRANCH  16  17
BRANCH  16  23
ATOM     23  C   UNL     1     -11.435  12.620  69.092  0.00  0.00    +0.198 C 
ATOM     24  O   UNL     1     -12.092  11.774  68.245  0.00  0.00    -0.219 OA
ENDBRANCH  16  23
ENDBRANCH  14  16
ENDBRANCH  13  14
ENDBRANCH   4  13
TORSDOF 6
ENDMDL
MODEL 2
REMARK VINA RESULT:      -6.5      1.977      2.723
REMARK  Name = 
REMARK  6 active torsions:
REMARK  status: ('A' for Active; 'I' for Inactive)
REMARK    1  A    between atoms: C_2  and  N_4
REMARK    2  A    between atoms: C_11  and  O_12
REMARK    3  A    between atoms: O_12  and  C_13
REMARK    4  A    between atoms: C_13  and  C_15
REMARK    5  A    between atoms: C_15  and  C_16
REMARK    6  A    between atoms: C_15  and  C_18
REMARK                            x       y       z     vdW  Elec       q    Type
REMARK                         _______ _______ _______ _____ _____    ______ ____
ROOT
ATOM      1  N   UNL     1      -8.261  18.449  67.485  0.00  0.00    +0.289 N 
ATOM      2  C   UNL     1      -9.051  17.918  68.686  0.00  0.00    +0.062 C 
ATOM      3  C   UNL     1     -10.363  17.262  67.931  0.00  0.00    +0.099 C 
ATOM      4  C   UNL     1      -9.672  16.658  66.579  0.00  0.00    +0.180 C 
ATOM      5  C   UNL     1      -9.966  18.025  65.750  0.00  0.00    +0.099 C 
ATOM      6  C   UNL     1      -9.802  19.359  68.943  0.00  0.00    +0.061 C 
ATOM      7  C   UNL     1     -10.437  19.448  67.636  0.00  0.00    +0.061 C 
ATOM      8  C   UNL     1      -9.209  19.236  66.563  0.00  0.00    +0.062 C 
ATOM      9  C   UNL     1      -7.380  17.584  66.903  0.00  0.00    +0.170 C 
ENDROOT
BRANCH   1  11
ATOM     10  C   UNL     1      -7.202  20.417  66.737  0.00  0.00    +0.061 C 
ATOM     11  C   UNL     1      -7.447  19.561  67.882  0.00  0.00    +0.058 C 
ATOM     12  C   UNL     1      -6.744  19.666  69.101  0.00  0.00    +0.061 C 
ENDBRANCH   1  11
BRANCH   4  13
ATOM     13  O   UNL     1     -11.002  16.026  66.111  0.00  0.00    -0.452 OA
BRANCH  13  14
ATOM     14  C   UNL     1     -11.003  14.649  65.977  0.00  0.00    +0.323 C 
ATOM     15  O   UNL     1     -10.419  14.226  64.946  0.00  0.00    -0.250 OA
BRANCH  14  16
ATOM     16  C   UNL     1     -12.394  13.909  66.321  0.00  0.00    +0.154 C 
BRANCH  16  17
ATOM     17  C   UNL     1     -11.847  13.137  67.611  0.00  0.00    -0.009 A 
ATOM     18  C   UNL     1     -11.484  11.863  67.612  0.00  0.00    -0.004 A 
ATOM     19  C   UNL     1     -11.516  11.159  68.813  0.00  0.00    -0.000 A 
ATOM     20  C   UNL     1     -11.918  11.838  69.959  0.00  0.00    -0.000 A 
ATOM     21  C   UNL     1     -11.918  13.228  69.956  0.00  0.00    -0.000 A 
ATOM     22  C   UNL     1     -11.951  13.890  68.744  0.00  0.00    -0.004 A 
ENDBRANCH  16  17
BRANCH  16  23
ATOM     23  C   UNL     1     -12.101  12.646  65.321  0.00  0.00    +0.198 C 
ATOM     24  O   UNL     1     -13.198  12.471  64.526  0.00  0.00    -0.219 OA
ENDBRANCH  16  23
ENDBRANCH  14  16
ENDBRANCH  13  14
ENDBRANCH   4  13
TORSDOF 6
ENDMDL
MODEL 3
REMARK VINA RESULT:      -6.3      2.992      4.852
REMARK  Name = 
REMARK  6 active torsions:
REMARK  status: ('A' for Active; 'I' for Inactive)
REMARK    1  A    between atoms: C_2  and  N_4
REMARK    2  A    between atoms: C_11  and  O_12
REMARK    3  A    between atoms: O_12  and  C_13
REMARK    4  A    between atoms: C_13  and  C_15
REMARK    5  A    between atoms: C_15  and  C_16
REMARK    6  A    between atoms: C_15  and  C_18
REMARK                            x       y       z     vdW  Elec       q    Type
REMARK                         _______ _______ _______ _____ _____    ______ ____
ROOT
ATOM      1  N   UNL     1      -9.346  18.259  67.019  0.00  0.00    +0.289 N 
ATOM      2  C   UNL     1      -8.197  17.500  66.349  0.00  0.00    +0.062 C 
ATOM      3  C   UNL     1      -8.807  15.968  66.321  0.00  0.00    +0.099 C 
ATOM      4  C   UNL     1     -10.386  16.269  66.029  0.00  0.00    +0.180 C 
ATOM      5  C   UNL     1     -10.732  16.304  67.617  0.00  0.00    +0.099 C 
ATOM      6  C   UNL     1      -7.406  17.259  67.771  0.00  0.00    +0.061 C 
ATOM      7  C   UNL     1      -8.475  16.525  68.432  0.00  0.00    +0.061 C 
ATOM      8  C   UNL     1      -9.799  17.488  68.272  0.00  0.00    +0.062 C 
ATOM      9  C   UNL     1     -10.313  18.756  66.195  0.00  0.00    +0.170 C 
ENDROOT
BRANCH   1  11
ATOM     10  C   UNL     1      -9.720  19.744  68.811  0.00  0.00    +0.061 C 
ATOM     11  C   UNL     1      -8.843  19.414  67.703  0.00  0.00    +0.058 C 
ATOM     12  C   UNL     1      -7.838  20.278  67.219  0.00  0.00    +0.061 C 
ENDBRANCH   1  11
BRANCH   4  13
ATOM     13  O   UNL     1     -10.717  14.763  65.936  0.00  0.00    -0.452 OA
BRANCH  13  14
ATOM     14  C   UNL     1     -11.445  14.371  64.827  0.00  0.00    +0.323 C 
ATOM     15  O   UNL     1     -11.989  15.317  64.201  0.00  0.00    -0.250 OA
BRANCH  14  16
ATOM     16  C   UNL     1     -12.369  13.063  65.017  0.00  0.00    +0.154 C 
BRANCH  16  17
ATOM     17  C   UNL     1     -11.195  12.115  65.549  0.00  0.00    -0.009 A 
ATOM     18  C   UNL     1     -10.201  11.673  64.792  0.00  0.00    -0.004 A 
ATOM     19  C   UNL     1      -9.548  10.501  65.164  0.00  0.00    -0.000 A 
ATOM     20  C   UNL     1      -9.967   9.858  66.325  0.00  0.00    -0.000 A 
ATOM     21  C   UNL     1     -10.735  10.561  67.247  0.00  0.00    -0.000 A 
ATOM     22  C   UNL     1     -11.419  11.683  66.823  0.00  0.00    -0.004 A 
ENDBRANCH  16  17
BRANCH  16  23
ATOM     23  C   UNL     1     -12.193  12.573  63.464  0.00  0.00    +0.198 C 
ATOM     24  O   UNL     1     -13.269  11.798  63.139  0.00  0.00    -0.219 OA
ENDBRANCH  16  23
ENDBRANCH  14  16
ENDBRANCH  13  14
ENDBRANCH   4  13
TORSDOF 6
ENDMDL
MODEL 4
REMARK VINA RESULT:      -6.3      2.794      4.357
REMARK  Name = 
REMARK  6 active torsions:
REMARK  status: ('A' for Active; 'I' for Inactive)
REMARK    1  A    between atoms: C_2  and  N_4
REMARK    2  A    between atoms: C_11  and  O_12
REMARK    3  A    between atoms: O_12  and  C_13
REMARK    4  A    between atoms: C_13  and  C_15
REMARK    5  A    between atoms: C_15  and  C_16
REMARK    6  A    between atoms: C_15  and  C_18
REMARK                            x       y       z     vdW  Elec       q    Type
REMARK                         _______ _______ _______ _____ _____    ______ ____
ROOT
ATOM      1  N   UNL     1      -8.664  17.748  66.972  0.00  0.00    +0.289 N 
ATOM      2  C   UNL     1      -8.060  16.591  66.170  0.00  0.00    +0.062 C 
ATOM      3  C   UNL     1      -9.227  15.440  66.354  0.00  0.00    +0.099 C 
ATOM      4  C   UNL     1     -10.578  16.360  66.316  0.00  0.00    +0.180 C 
ATOM      5  C   UNL     1     -10.580  16.523  67.934  0.00  0.00    +0.099 C 
ATOM      6  C   UNL     1      -7.184  16.041  67.449  0.00  0.00    +0.061 C 
ATOM      7  C   UNL     1      -8.317  15.802  68.333  0.00  0.00    +0.061 C 
ATOM      8  C   UNL     1      -9.148  17.221  68.335  0.00  0.00    +0.062 C 
ATOM      9  C   UNL     1      -9.484  18.601  66.293  0.00  0.00    +0.170 C 
ENDROOT
BRANCH   1  11
ATOM     10  C   UNL     1      -8.078  19.258  68.685  0.00  0.00    +0.061 C 
ATOM     11  C   UNL     1      -7.623  18.595  67.477  0.00  0.00    +0.058 C 
ATOM     12  C   UNL     1      -6.458  18.968  66.773  0.00  0.00    +0.061 C 
ENDBRANCH   1  11
BRANCH   4  13
ATOM     13  O   UNL     1     -11.496  15.120  66.387  0.00  0.00    -0.452 OA
BRANCH  13  14
ATOM     14  C   UNL     1     -11.730  14.471  65.188  0.00  0.00    +0.323 C 
ATOM     15  O   UNL     1     -12.072  15.229  64.245  0.00  0.00    -0.250 OA
BRANCH  14  16
ATOM     16  C   UNL     1     -12.557  13.090  65.284  0.00  0.00    +0.154 C 
BRANCH  16  17
ATOM     17  C   UNL     1     -11.497  12.334  66.213  0.00  0.00    -0.009 A 
ATOM     18  C   UNL     1     -11.647  12.161  67.518  0.00  0.00    -0.004 A 
ATOM     19  C   UNL     1     -10.512  11.972  68.302  0.00  0.00    -0.000 A 
ATOM     20  C   UNL     1      -9.273  11.961  67.669  0.00  0.00    -0.000 A 
ATOM     21  C   UNL     1      -9.219  11.771  66.293  0.00  0.00    -0.000 A 
ATOM     22  C   UNL     1     -10.349  12.031  65.541  0.00  0.00    -0.004 A 
ENDBRANCH  16  17
BRANCH  16  23
ATOM     23  C   UNL     1     -11.925  12.483  63.900  0.00  0.00    +0.198 C 
ATOM     24  O   UNL     1     -12.943  11.937  63.172  0.00  0.00    -0.219 OA
ENDBRANCH  16  23
ENDBRANCH  14  16
ENDBRANCH  13  14
ENDBRANCH   4  13
TORSDOF 6
ENDMDL
MODEL 5
REMARK VINA RESULT:      -6.3      3.335      7.050
REMARK  Name = 
REMARK  6 active torsions:
REMARK  status: ('A' for Active; 'I' for Inactive)
REMARK    1  A    between atoms: C_2  and  N_4
REMARK    2  A    between atoms: C_11  and  O_12
REMARK    3  A    between atoms: O_12  and  C_13
REMARK    4  A    between atoms: C_13  and  C_15
REMARK    5  A    between atoms: C_15  and  C_16
REMARK    6  A    between atoms: C_15  and  C_18
REMARK                            x       y       z     vdW  Elec       q    Type
REMARK                         _______ _______ _______ _____ _____    ______ ____
ROOT
ATOM      1  N   UNL     1     -10.381  12.506  66.045  0.00  0.00    +0.289 N 
ATOM      2  C   UNL     1     -10.414  13.087  64.628  0.00  0.00    +0.062 C 
ATOM      3  C   UNL     1     -10.962  14.613  64.928  0.00  0.00    +0.099 C 
ATOM      4  C   UNL     1     -10.219  14.936  66.348  0.00  0.00    +0.180 C 
ATOM      5  C   UNL     1     -11.488  14.386  67.202  0.00  0.00    +0.099 C 
ATOM      6  C   UNL     1     -11.922  12.504  64.326  0.00  0.00    +0.061 C 
ATOM      7  C   UNL     1     -12.589  13.204  65.415  0.00  0.00    +0.061 C 
ATOM      8  C   UNL     1     -11.711  12.821  66.752  0.00  0.00    +0.062 C 
ATOM      9  C   UNL     1      -9.227  12.683  66.752  0.00  0.00    +0.170 C 
ENDROOT
BRANCH   1  11
ATOM     10  C   UNL     1     -11.043  10.609  67.276  0.00  0.00    +0.061 C 
ATOM     11  C   UNL     1     -10.546  11.082  65.999  0.00  0.00    +0.058 C 
ATOM     12  C   UNL     1     -10.033  10.232  64.996  0.00  0.00    +0.061 C 
ENDBRANCH   1  11
BRANCH   4  13
ATOM     13  O   UNL     1     -10.761  16.381  66.372  0.00  0.00    -0.452 OA
BRANCH  13  14
ATOM     14  C   UNL     1     -10.142  17.245  67.258  0.00  0.00    +0.323 C 
ATOM     15  O   UNL     1     -10.925  17.813  68.063  0.00  0.00    -0.250 OA
BRANCH  14  16
ATOM     16  C   UNL     1      -9.002  18.199  66.632  0.00  0.00    +0.154 C 
BRANCH  16  17
ATOM     17  C   UNL     1      -8.145  18.325  67.977  0.00  0.00    -0.009 A 
ATOM     18  C   UNL     1      -7.874  19.475  68.577  0.00  0.00    -0.004 A 
ATOM     19  C   UNL     1      -6.752  19.553  69.397  0.00  0.00    -0.000 A 
ATOM     20  C   UNL     1      -5.976  18.409  69.556  0.00  0.00    -0.000 A 
ATOM     21  C   UNL     1      -6.516  17.174  69.214  0.00  0.00    -0.000 A 
ATOM     22  C   UNL     1      -7.590  17.135  68.346  0.00  0.00    -0.004 A 
ENDBRANCH  16  17
BRANCH  16  23
ATOM     23  C   UNL     1      -9.838  19.578  66.920  0.00  0.00    +0.198 C 
ATOM     24  O   UNL     1     -10.430  19.967  65.753  0.00  0.00    -0.219 OA
ENDBRANCH  16  23
ENDBRANCH  14  16
ENDBRANCH  13  14
ENDBRANCH   4  13
TORSDOF 6
ENDMDL
MODEL 6
REMARK VINA RESULT:      -6.2      2.603      4.117
REMARK  Name = 
REMARK  6 active torsions:
REMARK  status: ('A' for Active; 'I' for Inactive)
REMARK    1  A    between atoms: C_2  and  N_4
REMARK    2  A    between atoms: C_11  and  O_12
REMARK    3  A    between atoms: O_12  and  C_13
REMARK    4  A    between atoms: C_13  and  C_15
REMARK    5  A    between atoms: C_15  and  C_16
REMARK    6  A    between atoms: C_15  and  C_18
REMARK                            x       y       z     vdW  Elec       q    Type
REMARK                         _______ _______ _______ _____ _____    ______ ____
ROOT
ATOM      1  N   UNL     1      -8.113  18.039  68.072  0.00  0.00    +0.289 N 
ATOM      2  C   UNL     1      -9.398  18.676  68.610  0.00  0.00    +0.062 C 
ATOM      3  C   UNL     1     -10.540  17.830  67.773  0.00  0.00    +0.099 C 
ATOM      4  C   UNL     1      -9.856  16.346  67.728  0.00  0.00    +0.180 C 
ATOM      5  C   UNL     1      -9.141  16.657  66.302  0.00  0.00    +0.099 C 
ATOM      6  C   UNL     1      -9.361  19.897  67.508  0.00  0.00    +0.061 C 
ATOM      7  C   UNL     1      -9.408  19.051  66.324  0.00  0.00    +0.061 C 
ATOM      8  C   UNL     1      -8.185  17.973  66.536  0.00  0.00    +0.062 C 
ATOM      9  C   UNL     1      -7.652  16.938  68.734  0.00  0.00    +0.170 C 
ENDROOT
BRANCH   1  11
ATOM     10  C   UNL     1      -6.097  18.731  67.065  0.00  0.00    +0.061 C 
ATOM     11  C   UNL     1      -7.028  18.973  68.151  0.00  0.00    +0.058 C 
ATOM     12  C   UNL     1      -6.737  19.796  69.260  0.00  0.00    +0.061 C 
ENDBRANCH   1  11
BRANCH   4  13
ATOM     13  O   UNL     1     -11.092  15.732  67.034  0.00  0.00    -0.452 OA
BRANCH  13  14
ATOM     14  C   UNL     1     -11.543  14.532  67.554  0.00  0.00    +0.323 C 
ATOM     15  O   UNL     1     -11.968  14.604  68.736  0.00  0.00    -0.250 OA
BRANCH  14  16
ATOM     16  C   UNL     1     -10.632  13.240  67.238  0.00  0.00    +0.154 C 
BRANCH  16  17
ATOM     17  C   UNL     1     -11.142  13.051  65.733  0.00  0.00    -0.009 A 
ATOM     18  C   UNL     1     -12.420  13.023  65.383  0.00  0.00    -0.004 A 
ATOM     19  C   UNL     1     -12.777  12.368  64.208  0.00  0.00    -0.000 A 
ATOM     20  C   UNL     1     -11.766  11.786  63.450  0.00  0.00    -0.000 A 
ATOM     21  C   UNL     1     -10.449  12.171  63.670  0.00  0.00    -0.000 A 
ATOM     22  C   UNL     1     -10.122  12.760  64.876  0.00  0.00    -0.004 A 
ENDBRANCH  16  17
BRANCH  16  23
ATOM     23  C   UNL     1     -11.723  12.180  67.844  0.00  0.00    +0.198 C 
ATOM     24  O   UNL     1     -11.137  10.948  67.892  0.00  0.00    -0.219 OA
ENDBRANCH  16  23
ENDBRANCH  14  16
ENDBRANCH  13  14
ENDBRANCH   4  13
TORSDOF 6
ENDMDL
MODEL 7
REMARK VINA RESULT:      -6.1      2.917      7.072
REMARK  Name = 
REMARK  6 active torsions:
REMARK  status: ('A' for Active; 'I' for Inactive)
REMARK    1  A    between atoms: C_2  and  N_4
REMARK    2  A    between atoms: C_11  and  O_12
REMARK    3  A    between atoms: O_12  and  C_13
REMARK    4  A    between atoms: C_13  and  C_15
REMARK    5  A    between atoms: C_15  and  C_16
REMARK    6  A    between atoms: C_15  and  C_18
REMARK                            x       y       z     vdW  Elec       q    Type
REMARK                         _______ _______ _______ _____ _____    ______ ____
ROOT
ATOM      1  N   UNL     1     -11.106  14.074  65.650  0.00  0.00    +0.289 N 
ATOM      2  C   UNL     1     -12.057  14.142  66.848  0.00  0.00    +0.062 C 
ATOM      3  C   UNL     1     -11.102  14.893  67.964  0.00  0.00    +0.099 C 
ATOM      4  C   UNL     1     -10.281  15.940  67.015  0.00  0.00    +0.180 C 
ATOM      5  C   UNL     1      -9.071  14.877  66.794  0.00  0.00    +0.099 C 
ATOM      6  C   UNL     1     -11.648  12.637  67.373  0.00  0.00    +0.061 C 
ATOM      7  C   UNL     1     -10.229  12.907  67.555  0.00  0.00    +0.061 C 
ATOM      8  C   UNL     1      -9.740  13.539  66.117  0.00  0.00    +0.062 C 
ATOM      9  C   UNL     1     -11.113  15.144  64.802  0.00  0.00    +0.170 C 
ENDROOT
BRANCH   1  11
ATOM     10  C   UNL     1     -10.265  12.507  64.103  0.00  0.00    +0.061 C 
ATOM     11  C   UNL     1     -11.447  12.962  64.811  0.00  0.00    +0.058 C 
ATOM     12  C   UNL     1     -12.758  12.556  64.484  0.00  0.00    +0.061 C 
ENDBRANCH   1  11
BRANCH   4  13
ATOM     13  O   UNL     1      -9.572  16.577  68.229  0.00  0.00    -0.452 OA
BRANCH  13  14
ATOM     14  C   UNL     1      -9.474  17.957  68.217  0.00  0.00    +0.323 C 
ATOM     15  O   UNL     1     -10.482  18.554  68.674  0.00  0.00    -0.250 OA
BRANCH  14  16
ATOM     16  C   UNL     1      -8.848  18.607  66.880  0.00  0.00    +0.154 C 
BRANCH  16  17
ATOM     17  C   UNL     1      -7.758  19.503  67.635  0.00  0.00    -0.009 A 
ATOM     18  C   UNL     1      -7.353  20.690  67.210  0.00  0.00    -0.004 A 
ATOM     19  C   UNL     1      -6.099  21.150  67.603  0.00  0.00    -0.000 A 
ATOM     20  C   UNL     1      -5.338  20.339  68.439  0.00  0.00    -0.000 A 
ATOM     21  C   UNL     1      -5.962  19.310  69.134  0.00  0.00    -0.000 A 
ATOM     22  C   UNL     1      -7.176  18.838  68.674  0.00  0.00    -0.004 A 
ENDBRANCH  16  17
BRANCH  16  23
ATOM     23  C   UNL     1      -9.946  19.820  66.819  0.00  0.00    +0.198 C 
ATOM     24  O   UNL     1     -10.665  19.684  65.667  0.00  0.00    -0.219 OA
ENDBRANCH  16  23
ENDBRANCH  14  16
ENDBRANCH  13  14
ENDBRANCH   4  13
TORSDOF 6
ENDMDL
MODEL 8
REMARK VINA RESULT:      -6.1      2.858      4.227
REMARK  Name = 
REMARK  6 active torsions:
REMARK  status: ('A' for Active; 'I' for Inactive)
REMARK    1  A    between atoms: C_2  and  N_4
REMARK    2  A    between atoms: C_11  and  O_12
REMARK    3  A    between atoms: O_12  and  C_13
REMARK    4  A    between atoms: C_13  and  C_15
REMARK    5  A    between atoms: C_15  and  C_16
REMARK    6  A    between atoms: C_15  and  C_18
REMARK                            x       y       z     vdW  Elec       q    Type
REMARK                         _______ _______ _______ _____ _____    ______ ____
ROOT
ATOM      1  N   UNL     1      -8.329  18.413  67.338  0.00  0.00    +0.289 N 
ATOM      2  C   UNL     1      -8.958  18.279  68.729  0.00  0.00    +0.062 C 
ATOM      3  C   UNL     1     -10.276  17.348  68.388  0.00  0.00    +0.099 C 
ATOM      4  C   UNL     1      -9.667  16.358  67.238  0.00  0.00    +0.180 C 
ATOM      5  C   UNL     1     -10.148  17.354  66.046  0.00  0.00    +0.099 C 
ATOM      6  C   UNL     1      -9.798  19.686  68.584  0.00  0.00    +0.061 C 
ATOM      7  C   UNL     1     -10.557  19.303  67.402  0.00  0.00    +0.061 C 
ATOM      8  C   UNL     1      -9.420  18.801  66.324  0.00  0.00    +0.062 C 
ATOM      9  C   UNL     1      -7.438  17.445  66.974  0.00  0.00    +0.170 C 
ENDROOT
BRANCH   1  11
ATOM     10  C   UNL     1      -7.461  20.034  65.863  0.00  0.00    +0.061 C 
ATOM     11  C   UNL     1      -7.576  19.630  67.252  0.00  0.00    +0.058 C 
ATOM     12  C   UNL     1      -6.811  20.194  68.295  0.00  0.00    +0.061 C 
ENDBRANCH   1  11
BRANCH   4  13
ATOM     13  O   UNL     1     -10.978  15.546  67.159  0.00  0.00    -0.452 OA
BRANCH  13  14
ATOM     14  C   UNL     1     -10.858  14.247  66.698  0.00  0.00    +0.323 C 
ATOM     15  O   UNL     1      -9.774  14.002  66.108  0.00  0.00    -0.250 OA
BRANCH  14  16
ATOM     16  C   UNL     1     -12.169  13.624  65.995  0.00  0.00    +0.154 C 
BRANCH  16  17
ATOM     17  C   UNL     1     -11.593  12.136  65.876  0.00  0.00    -0.009 A 
ATOM     18  C   UNL     1     -11.272  11.382  66.916  0.00  0.00    -0.004 A 
ATOM     19  C   UNL     1     -10.341  10.362  66.740  0.00  0.00    -0.000 A 
ATOM     20  C   UNL     1      -9.803  10.178  65.470  0.00  0.00    -0.000 A 
ATOM     21  C   UNL     1     -10.450  10.739  64.375  0.00  0.00    -0.000 A 
ATOM     22  C   UNL     1     -11.318  11.793  64.585  0.00  0.00    -0.004 A 
ENDBRANCH  16  17
BRANCH  16  23
ATOM     23  C   UNL     1     -11.692  14.034  64.483  0.00  0.00    +0.198 C 
ATOM     24  O   UNL     1     -12.688  14.771  63.909  0.00  0.00    -0.219 OA
ENDBRANCH  16  23
ENDBRANCH  14  16
ENDBRANCH  13  14
ENDBRANCH   4  13
TORSDOF 6
ENDMDL
MODEL 9
REMARK VINA RESULT:      -6.0      2.748      4.802
REMARK  Name = 
REMARK  6 active torsions:
REMARK  status: ('A' for Active; 'I' for Inactive)
REMARK    1  A    between atoms: C_2  and  N_4
REMARK    2  A    between atoms: C_11  and  O_12
REMARK    3  A    between atoms: O_12  and  C_13
REMARK    4  A    between atoms: C_13  and  C_15
REMARK    5  A    between atoms: C_15  and  C_16
REMARK    6  A    between atoms: C_15  and  C_18
REMARK                            x       y       z     vdW  Elec       q    Type
REMARK                         _______ _______ _______ _____ _____    ______ ____
ROOT
ATOM      1  N   UNL     1      -9.311  17.381  67.634  0.00  0.00    +0.289 N 
ATOM      2  C   UNL     1      -9.173  16.657  66.292  0.00  0.00    +0.062 C 
ATOM      3  C   UNL     1      -8.806  15.130  66.795  0.00  0.00    +0.099 C 
ATOM      4  C   UNL     1      -9.730  15.016  68.138  0.00  0.00    +0.180 C 
ATOM      5  C   UNL     1      -8.519  15.546  69.085  0.00  0.00    +0.099 C 
ATOM      6  C   UNL     1      -7.593  17.082  66.121  0.00  0.00    +0.061 C 
ATOM      7  C   UNL     1      -7.120  16.447  67.343  0.00  0.00    +0.061 C 
ATOM      8  C   UNL     1      -8.103  17.033  68.523  0.00  0.00    +0.062 C 
ATOM      9  C   UNL     1     -10.548  17.371  68.211  0.00  0.00    +0.170 C 
ENDROOT
BRANCH   1  11
ATOM     10  C   UNL     1      -8.404  19.281  68.694  0.00  0.00    +0.061 C 
ATOM     11  C   UNL     1      -9.011  18.774  67.478  0.00  0.00    +0.058 C 
ATOM     12  C   UNL     1      -9.491  19.603  66.440  0.00  0.00    +0.061 C 
ENDBRANCH   1  11
BRANCH   4  13
ATOM     13  O   UNL     1      -9.329  13.541  68.361  0.00  0.00    -0.452 OA
BRANCH  13  14
ATOM     14  C   UNL     1     -10.309  12.602  68.097  0.00  0.00    +0.323 C 
ATOM     15  O   UNL     1     -10.969  12.241  69.106  0.00  0.00    -0.250 OA
BRANCH  14  16
ATOM     16  C   UNL     1      -9.890  11.407  67.097  0.00  0.00    +0.154 C 
BRANCH  16  17
ATOM     17  C   UNL     1     -10.641  12.003  65.816  0.00  0.00    -0.009 A 
ATOM     18  C   UNL     1     -11.796  12.649  65.869  0.00  0.00    -0.004 A 
ATOM     19  C   UNL     1     -12.600  12.675  64.733  0.00  0.00    -0.000 A 
ATOM     20  C   UNL     1     -12.140  12.029  63.590  0.00  0.00    -0.000 A 
ATOM     21  C   UNL     1     -10.790  11.709  63.492  0.00  0.00    -0.000 A 
ATOM     22  C   UNL     1     -10.040  11.630  64.649  0.00  0.00    -0.004 A 
ENDBRANCH  16  17
BRANCH  16  23
ATOM     23  C   UNL     1     -11.155  10.457  67.519  0.00  0.00    +0.198 C 
ATOM     24  O   UNL     1     -10.687   9.192  67.723  0.00  0.00    -0.219 OA
ENDBRANCH  16  23
ENDBRANCH  14  16
ENDBRANCH  13  14
ENDBRANCH   4  13
TORSDOF 6
ENDMDL
