MODEL 1
REMARK VINA RESULT:      -5.4      0.000      0.000
REMARK  Name = 
REMARK  11 active torsions:
REMARK  status: ('A' for Active; 'I' for Inactive)
REMARK    1  A    between atoms: C_2  and  C_4
REMARK    2  A    between atoms: C_4  and  N_5
REMARK    3  A    between atoms: N_5  and  C_6
REMARK    4  A    between atoms: N_5  and  C_17
REMARK    5  A    between atoms: C_6  and  C_7
REMARK    6  A    between atoms: C_7  and  N_8
REMARK    7  A    between atoms: N_8  and  C_9
REMARK    8  A    between atoms: N_8  and  C_13
REMARK    9  A    between atoms: C_9  and  C_10
REMARK   10  A    between atoms: C_13  and  C_14
REMARK   11  A    between atoms: C_17  and  C_18
REMARK                            x       y       z     vdW  Elec       q    Type
REMARK                         _______ _______ _______ _____ _____    ______ ____
ROOT
ATOM      1  C   UNL     1     -10.254  15.564  68.129  0.00  0.00    +0.091 C 
ENDROOT
BRANCH   1   2
ATOM      2  N   UNL     1     -10.171  16.449  66.994  0.00  0.00    -0.252 NA
BRANCH   2   3
ATOM      3  C   UNL     1      -9.123  17.444  67.202  0.00  0.00    +0.188 C 
BRANCH   3   4
ATOM      4  C   UNL     1      -9.759  18.766  66.911  0.00  0.00    +0.381 C 
ATOM      5  O   UNL     1     -11.032  18.950  67.455  0.00  0.00    -0.244 OA
ATOM      6  O   UNL     1      -9.566  19.284  65.785  0.00  0.00    -0.244 OA
ENDBRANCH   3   4
ENDBRANCH   2   3
BRANCH   2   7
ATOM      7  C   UNL     1      -9.915  15.771  65.755  0.00  0.00    +0.188 C 
BRANCH   7   9
ATOM      8  O   UNL     1     -11.304  16.845  64.210  0.00  0.00    -0.244 OA
ATOM      9  C   UNL     1     -11.142  15.793  64.899  0.00  0.00    +0.381 C 
ATOM     10  O   UNL     1     -11.746  14.610  64.473  0.00  0.00    -0.244 OA
ENDBRANCH   7   9
ENDBRANCH   2   7
ENDBRANCH   1   2
BRANCH   1  11
ATOM     11  C   UNL     1     -11.644  15.618  68.702  0.00  0.00    +0.091 C 
BRANCH  11  12
ATOM     12  N   UNL     1     -12.131  14.321  69.131  0.00  0.00    -0.252 NA
BRANCH  12  13
ATOM     13  C   UNL     1     -11.155  13.342  68.654  0.00  0.00    +0.188 C 
BRANCH  13  14
ATOM     14  C   UNL     1     -11.809  12.196  67.981  0.00  0.00    +0.381 C 
ATOM     15  O   UNL     1     -12.227  11.080  68.690  0.00  0.00    -0.244 OA
ATOM     16  O   UNL     1     -11.943  12.138  66.721  0.00  0.00    -0.244 OA
ENDBRANCH  13  14
ENDBRANCH  12  13
BRANCH  12  17
ATOM     17  C   UNL     1     -12.207  14.209  70.564  0.00  0.00    +0.188 C 
BRANCH  17  18
ATOM     18  C   UNL     1     -12.698  15.440  71.225  0.00  0.00    +0.381 C 
ATOM     19  O   UNL     1     -14.046  15.665  71.480  0.00  0.00    -0.244 OA
ATOM     20  O   UNL     1     -11.888  16.000  72.026  0.00  0.00    -0.244 OA
ENDBRANCH  17  18
ENDBRANCH  12  17
ENDBRANCH  11  12
ENDBRANCH   1  11
TORSDOF 11
ENDMDL
MODEL 2
REMARK VINA RESULT:      -5.4      1.807      4.284
REMARK  Name = 
REMARK  11 active torsions:
REMARK  status: ('A' for Active; 'I' for Inactive)
REMARK    1  A    between atoms: C_2  and  C_4
REMARK    2  A    between atoms: C_4  and  N_5
REMARK    3  A    between atoms: N_5  and  C_6
REMARK    4  A    between atoms: N_5  and  C_17
REMARK    5  A    between atoms: C_6  and  C_7
REMARK    6  A    between atoms: C_7  and  N_8
REMARK    7  A    between atoms: N_8  and  C_9
REMARK    8  A    between atoms: N_8  and  C_13
REMARK    9  A    between atoms: C_9  and  C_10
REMARK   10  A    between atoms: C_13  and  C_14
REMARK   11  A    between atoms: C_17  and  C_18
REMARK                            x       y       z     vdW  Elec       q    Type
REMARK                         _______ _______ _______ _____ _____    ______ ____
ROOT
ATOM      1  C   UNL     1     -11.816  14.320  67.446  0.00  0.00    +0.091 C 
ENDROOT
BRANCH   1   2
ATOM      2  N   UNL     1     -11.737  14.009  66.040  0.00  0.00    -0.252 NA
BRANCH   2   3
ATOM      3  C   UNL     1     -10.840  14.942  65.365  0.00  0.00    +0.188 C 
BRANCH   3   4
ATOM      4  C   UNL     1     -11.728  15.905  64.644  0.00  0.00    +0.381 C 
ATOM      5  O   UNL     1     -12.665  15.327  63.786  0.00  0.00    -0.244 OA
ATOM      6  O   UNL     1     -11.239  16.996  64.264  0.00  0.00    -0.244 OA
ENDBRANCH   3   4
ENDBRANCH   2   3
BRANCH   2   7
ATOM      7  C   UNL     1     -11.288  12.672  65.771  0.00  0.00    +0.188 C 
BRANCH   7   9
ATOM      8  O   UNL     1     -13.190  12.235  64.482  0.00  0.00    -0.244 OA
ATOM      9  C   UNL     1     -11.924  12.164  64.515  0.00  0.00    +0.381 C 
ATOM     10  O   UNL     1     -11.221  12.131  63.312  0.00  0.00    -0.244 OA
ENDBRANCH   7   9
ENDBRANCH   2   7
ENDBRANCH   1   2
BRANCH   1  11
ATOM     11  C   UNL     1     -10.613  15.132  67.844  0.00  0.00    +0.091 C 
BRANCH  11  12
ATOM     12  N   UNL     1     -10.906  16.110  68.874  0.00  0.00    -0.252 NA
BRANCH  12  13
ATOM     13  C   UNL     1     -10.627  15.453  70.151  0.00  0.00    +0.188 C 
BRANCH  13  14
ATOM     14  C   UNL     1     -11.760  15.585  71.096  0.00  0.00    +0.381 C 
ATOM     15  O   UNL     1     -13.022  15.969  70.669  0.00  0.00    -0.244 OA
ATOM     16  O   UNL     1     -11.617  15.436  72.347  0.00  0.00    -0.244 OA
ENDBRANCH  13  14
ENDBRANCH  12  13
BRANCH  12  17
ATOM     17  C   UNL     1     -10.065  17.274  68.781  0.00  0.00    +0.188 C 
BRANCH  17  18
ATOM     18  C   UNL     1     -10.253  18.038  67.527  0.00  0.00    +0.381 C 
ATOM     19  O   UNL     1     -11.106  19.133  67.439  0.00  0.00    -0.244 OA
ATOM     20  O   UNL     1      -9.266  18.047  66.729  0.00  0.00    -0.244 OA
ENDBRANCH  17  18
ENDBRANCH  12  17
ENDBRANCH  11  12
ENDBRANCH   1  11
TORSDOF 11
ENDMDL
MODEL 3
REMARK VINA RESULT:      -5.4      1.851      5.534
REMARK  Name = 
REMARK  11 active torsions:
REMARK  status: ('A' for Active; 'I' for Inactive)
REMARK    1  A    between atoms: C_2  and  C_4
REMARK    2  A    between atoms: C_4  and  N_5
REMARK    3  A    between atoms: N_5  and  C_6
REMARK    4  A    between atoms: N_5  and  C_17
REMARK    5  A    between atoms: C_6  and  C_7
REMARK    6  A    between atoms: C_7  and  N_8
REMARK    7  A    between atoms: N_8  and  C_9
REMARK    8  A    between atoms: N_8  and  C_13
REMARK    9  A    between atoms: C_9  and  C_10
REMARK   10  A    between atoms: C_13  and  C_14
REMARK   11  A    between atoms: C_17  and  C_18
REMARK                            x       y       z     vdW  Elec       q    Type
REMARK                         _______ _______ _______ _____ _____    ______ ____
ROOT
ATOM      1  C   UNL     1     -11.926  15.202  68.317  0.00  0.00    +0.091 C 
ENDROOT
BRANCH   1   2
ATOM      2  N   UNL     1     -11.402  16.322  69.059  0.00  0.00    -0.252 NA
BRANCH   2   3
ATOM      3  C   UNL     1     -11.363  16.012  70.485  0.00  0.00    +0.188 C 
BRANCH   3   4
ATOM      4  C   UNL     1     -12.531  15.113  70.735  0.00  0.00    +0.381 C 
ATOM      5  O   UNL     1     -13.687  15.749  71.193  0.00  0.00    -0.244 OA
ATOM      6  O   UNL     1     -12.314  13.970  71.203  0.00  0.00    -0.244 OA
ENDBRANCH   3   4
ENDBRANCH   2   3
BRANCH   2   7
ATOM      7  C   UNL     1     -10.087  16.721  68.644  0.00  0.00    +0.188 C 
BRANCH   7   9
ATOM      8  O   UNL     1      -8.898  18.729  68.489  0.00  0.00    -0.244 OA
ATOM      9  C   UNL     1     -10.049  18.201  68.425  0.00  0.00    +0.381 C 
ATOM     10  O   UNL     1     -11.046  18.848  67.696  0.00  0.00    -0.244 OA
ENDBRANCH   7   9
ENDBRANCH   2   7
ENDBRANCH   1   2
BRANCH   1  11
ATOM     11  C   UNL     1     -10.861  14.674  67.395  0.00  0.00    +0.091 C 
BRANCH  11  12
ATOM     12  N   UNL     1     -11.372  14.317  66.085  0.00  0.00    -0.252 NA
BRANCH  12  13
ATOM     13  C   UNL     1     -10.570  15.065  65.118  0.00  0.00    +0.188 C 
BRANCH  13  14
ATOM     14  C   UNL     1     -11.339  16.173  64.504  0.00  0.00    +0.381 C 
ATOM     15  O   UNL     1     -11.018  17.500  64.745  0.00  0.00    -0.244 OA
ATOM     16  O   UNL     1     -12.374  15.969  63.801  0.00  0.00    -0.244 OA
ENDBRANCH  13  14
ENDBRANCH  12  13
BRANCH  12  17
ATOM     17  C   UNL     1     -11.219  12.915  65.799  0.00  0.00    +0.188 C 
BRANCH  17  18
ATOM     18  C   UNL     1     -11.980  12.471  64.609  0.00  0.00    +0.381 C 
ATOM     19  O   UNL     1     -11.484  11.531  63.711  0.00  0.00    -0.244 OA
ATOM     20  O   UNL     1     -13.244  12.517  64.710  0.00  0.00    -0.244 OA
ENDBRANCH  17  18
ENDBRANCH  12  17
ENDBRANCH  11  12
ENDBRANCH   1  11
TORSDOF 11
ENDMDL
MODEL 4
REMARK VINA RESULT:      -5.3      1.502      2.171
REMARK  Name = 
REMARK  11 active torsions:
REMARK  status: ('A' for Active; 'I' for Inactive)
REMARK    1  A    between atoms: C_2  and  C_4
REMARK    2  A    between atoms: C_4  and  N_5
REMARK    3  A    between atoms: N_5  and  C_6
REMARK    4  A    between atoms: N_5  and  C_17
REMARK    5  A    between atoms: C_6  and  C_7
REMARK    6  A    between atoms: C_7  and  N_8
REMARK    7  A    between atoms: N_8  and  C_9
REMARK    8  A    between atoms: N_8  and  C_13
REMARK    9  A    between atoms: C_9  and  C_10
REMARK   10  A    between atoms: C_13  and  C_14
REMARK   11  A    between atoms: C_17  and  C_18
REMARK                            x       y       z     vdW  Elec       q    Type
REMARK                         _______ _______ _______ _____ _____    ______ ____
ROOT
ATOM      1  C   UNL     1     -10.762  14.601  67.665  0.00  0.00    +0.091 C 
ENDROOT
BRANCH   1   2
ATOM      2  N   UNL     1     -11.029  14.639  66.249  0.00  0.00    -0.252 NA
BRANCH   2   3
ATOM      3  C   UNL     1      -9.947  15.322  65.547  0.00  0.00    +0.188 C 
BRANCH   3   4
ATOM      4  C   UNL     1     -10.260  16.781  65.646  0.00  0.00    +0.381 C 
ATOM      5  O   UNL     1     -11.148  17.269  64.685  0.00  0.00    -0.244 OA
ATOM      6  O   UNL     1      -9.343  17.565  65.991  0.00  0.00    -0.244 OA
ENDBRANCH   3   4
ENDBRANCH   2   3
BRANCH   2   7
ATOM      7  C   UNL     1     -11.202  13.339  65.662  0.00  0.00    +0.188 C 
BRANCH   7   9
ATOM      8  O   UNL     1     -13.144  12.431  64.728  0.00  0.00    -0.244 OA
ATOM      9  C   UNL     1     -12.306  13.379  64.653  0.00  0.00    +0.381 C 
ATOM     10  O   UNL     1     -12.700  14.579  64.061  0.00  0.00    -0.244 OA
ENDBRANCH   7   9
ENDBRANCH   2   7
ENDBRANCH   1   2
BRANCH   1  11
ATOM     11  C   UNL     1     -12.020  14.938  68.418  0.00  0.00    +0.091 C 
BRANCH  11  12
ATOM     12  N   UNL     1     -12.332  13.977  69.459  0.00  0.00    -0.252 NA
BRANCH  12  13
ATOM     13  C   UNL     1     -11.323  12.923  69.355  0.00  0.00    +0.188 C 
BRANCH  13  14
ATOM     14  C   UNL     1     -11.939  11.583  69.220  0.00  0.00    +0.381 C 
ATOM     15  O   UNL     1     -12.333  10.850  70.328  0.00  0.00    -0.244 OA
ATOM     16  O   UNL     1     -12.059  11.005  68.098  0.00  0.00    -0.244 OA
ENDBRANCH  13  14
ENDBRANCH  12  13
BRANCH  12  17
ATOM     17  C   UNL     1     -12.245  14.547  70.777  0.00  0.00    +0.188 C 
BRANCH  17  18
ATOM     18  C   UNL     1     -13.530  14.531  71.512  0.00  0.00    +0.381 C 
ATOM     19  O   UNL     1     -13.802  13.616  72.523  0.00  0.00    -0.244 OA
ATOM     20  O   UNL     1     -14.130  15.645  71.606  0.00  0.00    -0.244 OA
ENDBRANCH  17  18
ENDBRANCH  12  17
ENDBRANCH  11  12
ENDBRANCH   1  11
TORSDOF 11
ENDMDL
MODEL 5
REMARK VINA RESULT:      -5.3      1.932      6.340
REMARK  Name = 
REMARK  11 active torsions:
REMARK  status: ('A' for Active; 'I' for Inactive)
REMARK    1  A    between atoms: C_2  and  C_4
REMARK    2  A    between atoms: C_4  and  N_5
REMARK    3  A    between atoms: N_5  and  C_6
REMARK    4  A    between atoms: N_5  and  C_17
REMARK    5  A    between atoms: C_6  and  C_7
REMARK    6  A    between atoms: C_7  and  N_8
REMARK    7  A    between atoms: N_8  and  C_9
REMARK    8  A    between atoms: N_8  and  C_13
REMARK    9  A    between atoms: C_9  and  C_10
REMARK   10  A    between atoms: C_13  and  C_14
REMARK   11  A    between atoms: C_17  and  C_18
REMARK                            x       y       z     vdW  Elec       q    Type
REMARK                         _______ _______ _______ _____ _____    ______ ____
ROOT
ATOM      1  C   UNL     1     -11.235  15.057  70.839  0.00  0.00    +0.091 C 
ENDROOT
BRANCH   1   2
ATOM      2  N   UNL     1     -12.312  15.238  71.780  0.00  0.00    -0.252 NA
BRANCH   2   3
ATOM      3  C   UNL     1     -12.017  16.348  72.681  0.00  0.00    +0.188 C 
BRANCH   3   4
ATOM      4  C   UNL     1     -12.463  15.897  74.035  0.00  0.00    +0.381 C 
ATOM      5  O   UNL     1     -12.373  16.858  75.045  0.00  0.00    -0.244 OA
ATOM      6  O   UNL     1     -12.216  14.716  74.381  0.00  0.00    -0.244 OA
ENDBRANCH   3   4
ENDBRANCH   2   3
BRANCH   2   7
ATOM      7  C   UNL     1     -13.583  15.484  71.157  0.00  0.00    +0.188 C 
BRANCH   7   9
ATOM      8  O   UNL     1     -15.806  14.778  71.330  0.00  0.00    -0.244 OA
ATOM      9  C   UNL     1     -14.634  14.625  71.788  0.00  0.00    +0.381 C 
ATOM     10  O   UNL     1     -14.305  13.419  72.406  0.00  0.00    -0.244 OA
ENDBRANCH   7   9
ENDBRANCH   2   7
ENDBRANCH   1   2
BRANCH   1  11
ATOM     11  C   UNL     1     -11.058  16.317  70.036  0.00  0.00    +0.091 C 
BRANCH  11  12
ATOM     12  N   UNL     1     -11.026  16.077  68.606  0.00  0.00    -0.252 NA
BRANCH  12  13
ATOM     13  C   UNL     1      -9.971  16.938  68.072  0.00  0.00    +0.188 C 
BRANCH  13  14
ATOM     14  C   UNL     1     -10.503  17.923  67.101  0.00  0.00    +0.381 C 
ATOM     15  O   UNL     1     -10.360  17.743  65.734  0.00  0.00    -0.244 OA
ATOM     16  O   UNL     1     -11.036  19.013  67.467  0.00  0.00    -0.244 OA
ENDBRANCH  13  14
ENDBRANCH  12  13
BRANCH  12  17
ATOM     17  C   UNL     1     -10.692  14.715  68.284  0.00  0.00    +0.188 C 
BRANCH  17  18
ATOM     18  C   UNL     1     -11.789  13.984  67.610  0.00  0.00    +0.381 C 
ATOM     19  O   UNL     1     -12.198  14.278  66.313  0.00  0.00    -0.244 OA
ATOM     20  O   UNL     1     -11.965  12.783  67.980  0.00  0.00    -0.244 OA
ENDBRANCH  17  18
ENDBRANCH  12  17
ENDBRANCH  11  12
ENDBRANCH   1  11
TORSDOF 11
ENDMDL
MODEL 6
REMARK VINA RESULT:      -5.2      1.584      6.376
REMARK  Name = 
REMARK  11 active torsions:
REMARK  status: ('A' for Active; 'I' for Inactive)
REMARK    1  A    between atoms: C_2  and  C_4
REMARK    2  A    between atoms: C_4  and  N_5
REMARK    3  A    between atoms: N_5  and  C_6
REMARK    4  A    between atoms: N_5  and  C_17
REMARK    5  A    between atoms: C_6  and  C_7
REMARK    6  A    between atoms: C_7  and  N_8
REMARK    7  A    between atoms: N_8  and  C_9
REMARK    8  A    between atoms: N_8  and  C_13
REMARK    9  A    between atoms: C_9  and  C_10
REMARK   10  A    between atoms: C_13  and  C_14
REMARK   11  A    between atoms: C_17  and  C_18
REMARK                            x       y       z     vdW  Elec       q    Type
REMARK                         _______ _______ _______ _____ _____    ______ ____
ROOT
ATOM      1  C   UNL     1     -11.817  15.151  68.908  0.00  0.00    +0.091 C 
ENDROOT
BRANCH   1   2
ATOM      2  N   UNL     1     -12.155  14.107  69.843  0.00  0.00    -0.252 NA
BRANCH   2   3
ATOM      3  C   UNL     1     -11.276  12.957  69.659  0.00  0.00    +0.188 C 
BRANCH   3   4
ATOM      4  C   UNL     1     -12.176  11.765  69.604  0.00  0.00    +0.381 C 
ATOM      5  O   UNL     1     -12.228  11.001  70.772  0.00  0.00    -0.244 OA
ATOM      6  O   UNL     1     -12.253  11.124  68.528  0.00  0.00    -0.244 OA
ENDBRANCH   3   4
ENDBRANCH   2   3
BRANCH   2   7
ATOM      7  C   UNL     1     -12.081  14.520  71.217  0.00  0.00    +0.188 C 
BRANCH   7   9
ATOM      8  O   UNL     1     -14.235  15.426  71.314  0.00  0.00    -0.244 OA
ATOM      9  C   UNL     1     -13.454  14.560  71.811  0.00  0.00    +0.381 C 
ATOM     10  O   UNL     1     -14.003  13.441  72.437  0.00  0.00    -0.244 OA
ENDBRANCH   7   9
ENDBRANCH   2   7
ENDBRANCH   1   2
BRANCH   1  11
ATOM     11  C   UNL     1     -10.771  14.644  67.953  0.00  0.00    +0.091 C 
BRANCH  11  12
ATOM     12  N   UNL     1     -11.178  14.738  66.564  0.00  0.00    -0.252 NA
BRANCH  12  13
ATOM     13  C   UNL     1     -10.119  15.480  65.880  0.00  0.00    +0.188 C 
BRANCH  13  14
ATOM     14  C   UNL     1     -10.630  16.726  65.263  0.00  0.00    +0.381 C 
ATOM     15  O   UNL     1     -11.410  16.702  64.117  0.00  0.00    -0.244 OA
ATOM     16  O   UNL     1     -10.315  17.874  65.698  0.00  0.00    -0.244 OA
ENDBRANCH  13  14
ENDBRANCH  12  13
BRANCH  12  17
ATOM     17  C   UNL     1     -11.293  13.449  65.936  0.00  0.00    +0.188 C 
BRANCH  17  18
ATOM     18  C   UNL     1     -12.558  13.270  65.187  0.00  0.00    +0.381 C 
ATOM     19  O   UNL     1     -13.670  14.079  65.393  0.00  0.00    -0.244 OA
ATOM     20  O   UNL     1     -12.448  12.777  64.023  0.00  0.00    -0.244 OA
ENDBRANCH  17  18
ENDBRANCH  12  17
ENDBRANCH  11  12
ENDBRANCH   1  11
TORSDOF 11
ENDMDL
MODEL 7
REMARK VINA RESULT:      -5.2      2.056      3.510
REMARK  Name = 
REMARK  11 active torsions:
REMARK  status: ('A' for Active; 'I' for Inactive)
REMARK    1  A    between atoms: C_2  and  C_4
REMARK    2  A    between atoms: C_4  and  N_5
REMARK    3  A    between atoms: N_5  and  C_6
REMARK    4  A    between atoms: N_5  and  C_17
REMARK    5  A    between atoms: C_6  and  C_7
REMARK    6  A    between atoms: C_7  and  N_8
REMARK    7  A    between atoms: N_8  and  C_9
REMARK    8  A    between atoms: N_8  and  C_13
REMARK    9  A    between atoms: C_9  and  C_10
REMARK   10  A    between atoms: C_13  and  C_14
REMARK   11  A    between atoms: C_17  and  C_18
REMARK                            x       y       z     vdW  Elec       q    Type
REMARK                         _______ _______ _______ _____ _____    ______ ____
ROOT
ATOM      1  C   UNL     1     -10.740  14.303  67.553  0.00  0.00    +0.091 C 
ENDROOT
BRANCH   1   2
ATOM      2  N   UNL     1     -11.148  14.463  66.180  0.00  0.00    -0.252 NA
BRANCH   2   3
ATOM      3  C   UNL     1     -10.197  15.307  65.463  0.00  0.00    +0.188 C 
BRANCH   3   4
ATOM      4  C   UNL     1     -10.952  16.543  65.094  0.00  0.00    +0.381 C 
ATOM      5  O   UNL     1     -11.590  16.506  63.851  0.00  0.00    -0.244 OA
ATOM      6  O   UNL     1     -10.477  17.655  65.431  0.00  0.00    -0.244 OA
ENDBRANCH   3   4
ENDBRANCH   2   3
BRANCH   2   7
ATOM      7  C   UNL     1     -11.279  13.221  65.471  0.00  0.00    +0.188 C 
BRANCH   7   9
ATOM      8  O   UNL     1     -13.504  13.927  65.330  0.00  0.00    -0.244 OA
ATOM      9  C   UNL     1     -12.642  13.125  64.861  0.00  0.00    +0.381 C 
ATOM     10  O   UNL     1     -12.822  12.622  63.572  0.00  0.00    -0.244 OA
ENDBRANCH   7   9
ENDBRANCH   2   7
ENDBRANCH   1   2
BRANCH   1  11
ATOM     11  C   UNL     1     -11.537  15.239  68.422  0.00  0.00    +0.091 C 
BRANCH  11  12
ATOM     12  N   UNL     1     -10.745  15.852  69.470  0.00  0.00    -0.252 NA
BRANCH  12  13
ATOM     13  C   UNL     1     -10.244  17.110  68.918  0.00  0.00    +0.188 C 
BRANCH  13  14
ATOM     14  C   UNL     1      -8.795  17.041  68.616  0.00  0.00    +0.381 C 
ATOM     15  O   UNL     1      -7.968  16.114  69.233  0.00  0.00    -0.244 OA
ATOM     16  O   UNL     1      -8.224  17.872  67.848  0.00  0.00    -0.244 OA
ENDBRANCH  13  14
ENDBRANCH  12  13
BRANCH  12  17
ATOM     17  C   UNL     1     -11.525  16.160  70.640  0.00  0.00    +0.188 C 
BRANCH  17  18
ATOM     18  C   UNL     1     -12.603  15.180  70.903  0.00  0.00    +0.381 C 
ATOM     19  O   UNL     1     -12.350  13.904  71.395  0.00  0.00    -0.244 OA
ATOM     20  O   UNL     1     -13.735  15.668  71.203  0.00  0.00    -0.244 OA
ENDBRANCH  17  18
ENDBRANCH  12  17
ENDBRANCH  11  12
ENDBRANCH   1  11
TORSDOF 11
ENDMDL
MODEL 8
REMARK VINA RESULT:      -5.1      2.679      6.069
REMARK  Name = 
REMARK  11 active torsions:
REMARK  status: ('A' for Active; 'I' for Inactive)
REMARK    1  A    between atoms: C_2  and  C_4
REMARK    2  A    between atoms: C_4  and  N_5
REMARK    3  A    between atoms: N_5  and  C_6
REMARK    4  A    between atoms: N_5  and  C_17
REMARK    5  A    between atoms: C_6  and  C_7
REMARK    6  A    between atoms: C_7  and  N_8
REMARK    7  A    between atoms: N_8  and  C_9
REMARK    8  A    between atoms: N_8  and  C_13
REMARK    9  A    between atoms: C_9  and  C_10
REMARK   10  A    between atoms: C_13  and  C_14
REMARK   11  A    between atoms: C_17  and  C_18
REMARK                            x       y       z     vdW  Elec       q    Type
REMARK                         _______ _______ _______ _____ _____    ______ ____
ROOT
ATOM      1  C   UNL     1     -10.040  14.676  65.643  0.00  0.00    +0.091 C 
ENDROOT
BRANCH   1   2
ATOM      2  N   UNL     1     -11.178  13.794  65.579  0.00  0.00    -0.252 NA
BRANCH   2   3
ATOM      3  C   UNL     1     -11.991  13.925  66.785  0.00  0.00    +0.188 C 
BRANCH   3   4
ATOM      4  C   UNL     1     -11.758  12.673  67.567  0.00  0.00    +0.381 C 
ATOM      5  O   UNL     1     -10.749  12.749  68.530  0.00  0.00    -0.244 OA
ATOM      6  O   UNL     1     -11.867  11.572  66.975  0.00  0.00    -0.244 OA
ENDBRANCH   3   4
ENDBRANCH   2   3
BRANCH   2   7
ATOM      7  C   UNL     1     -12.019  14.022  64.437  0.00  0.00    +0.188 C 
BRANCH   7   9
ATOM      8  O   UNL     1     -10.918  12.286  63.321  0.00  0.00    -0.244 OA
ATOM      9  C   UNL     1     -12.050  12.799  63.575  0.00  0.00    +0.381 C 
ATOM     10  O   UNL     1     -13.185  11.991  63.509  0.00  0.00    -0.244 OA
ENDBRANCH   7   9
ENDBRANCH   2   7
ENDBRANCH   1   2
BRANCH   1  11
ATOM     11  C   UNL     1     -10.492  16.090  65.394  0.00  0.00    +0.091 C 
BRANCH  11  12
ATOM     12  N   UNL     1      -9.553  17.080  65.886  0.00  0.00    -0.252 NA
BRANCH  12  13
ATOM     13  C   UNL     1     -10.148  17.635  67.102  0.00  0.00    +0.188 C 
BRANCH  13  14
ATOM     14  C   UNL     1     -10.427  19.084  66.966  0.00  0.00    +0.381 C 
ATOM     15  O   UNL     1     -10.635  19.890  68.074  0.00  0.00    -0.244 OA
ATOM     16  O   UNL     1     -10.573  19.641  65.836  0.00  0.00    -0.244 OA
ENDBRANCH  13  14
ENDBRANCH  12  13
BRANCH  12  17
ATOM     17  C   UNL     1      -8.282  16.505  66.237  0.00  0.00    +0.188 C 
BRANCH  17  18
ATOM     18  C   UNL     1      -7.157  17.465  66.149  0.00  0.00    +0.381 C 
ATOM     19  O   UNL     1      -7.108  18.473  65.192  0.00  0.00    -0.244 OA
ATOM     20  O   UNL     1      -6.551  17.711  67.235  0.00  0.00    -0.244 OA
ENDBRANCH  17  18
ENDBRANCH  12  17
ENDBRANCH  11  12
ENDBRANCH   1  11
TORSDOF 11
ENDMDL
MODEL 9
REMARK VINA RESULT:      -5.1      2.527      6.406
REMARK  Name = 
REMARK  11 active torsions:
REMARK  status: ('A' for Active; 'I' for Inactive)
REMARK    1  A    between atoms: C_2  and  C_4
REMARK    2  A    between atoms: C_4  and  N_5
REMARK    3  A    between atoms: N_5  and  C_6
REMARK    4  A    between atoms: N_5  and  C_17
REMARK    5  A    between atoms: C_6  and  C_7
REMARK    6  A    between atoms: C_7  and  N_8
REMARK    7  A    between atoms: N_8  and  C_9
REMARK    8  A    between atoms: N_8  and  C_13
REMARK    9  A    between atoms: C_9  and  C_10
REMARK   10  A    between atoms: C_13  and  C_14
REMARK   11  A    between atoms: C_17  and  C_18
REMARK                            x       y       z     vdW  Elec       q    Type
REMARK                         _______ _______ _______ _____ _____    ______ ____
ROOT
ATOM      1  C   UNL     1      -9.778  14.919  65.381  0.00  0.00    +0.091 C 
ENDROOT
BRANCH   1   2
ATOM      2  N   UNL     1     -10.720  13.836  65.516  0.00  0.00    -0.252 NA
BRANCH   2   3
ATOM      3  C   UNL     1     -10.738  13.026  64.302  0.00  0.00    +0.188 C 
BRANCH   3   4
ATOM      4  C   UNL     1     -12.136  13.116  63.778  0.00  0.00    +0.381 C 
ATOM      5  O   UNL     1     -12.642  14.411  63.645  0.00  0.00    -0.244 OA
ATOM      6  O   UNL     1     -12.962  12.240  64.132  0.00  0.00    -0.244 OA
ENDBRANCH   3   4
ENDBRANCH   2   3
BRANCH   2   7
ATOM      7  C   UNL     1     -10.448  12.975  66.633  0.00  0.00    +0.188 C 
BRANCH   7   9
ATOM      8  O   UNL     1     -12.050  11.581  67.613  0.00  0.00    -0.244 OA
ATOM      9  C   UNL     1     -11.692  12.785  67.444  0.00  0.00    +0.381 C 
ATOM     10  O   UNL     1     -12.106  13.746  68.365  0.00  0.00    -0.244 OA
ENDBRANCH   7   9
ENDBRANCH   2   7
ENDBRANCH   1   2
BRANCH   1  11
ATOM     11  C   UNL     1     -10.453  16.214  65.747  0.00  0.00    +0.091 C 
BRANCH  11  12
ATOM     12  N   UNL     1      -9.515  17.263  66.095  0.00  0.00    -0.252 NA
BRANCH  12  13
ATOM     13  C   UNL     1     -10.204  18.124  67.055  0.00  0.00    +0.188 C 
BRANCH  13  14
ATOM     14  C   UNL     1     -10.262  19.530  66.592  0.00  0.00    +0.381 C 
ATOM     15  O   UNL     1      -9.812  20.575  67.384  0.00  0.00    -0.244 OA
ATOM     16  O   UNL     1     -10.800  19.857  65.491  0.00  0.00    -0.244 OA
ENDBRANCH  13  14
ENDBRANCH  12  13
BRANCH  12  17
ATOM     17  C   UNL     1      -8.328  16.752  66.729  0.00  0.00    +0.188 C 
BRANCH  17  18
ATOM     18  C   UNL     1      -7.082  17.390  66.247  0.00  0.00    +0.381 C 
ATOM     19  O   UNL     1      -5.841  16.768  66.337  0.00  0.00    -0.244 OA
ATOM     20  O   UNL     1      -7.213  18.213  65.291  0.00  0.00    -0.244 OA
ENDBRANCH  17  18
ENDBRANCH  12  17
ENDBRANCH  11  12
ENDBRANCH   1  11
TORSDOF 11
ENDMDL
