MODEL 1
REMARK VINA RESULT:      -7.3      0.000      0.000
REMARK  Name = 
REMARK  5 active torsions:
REMARK  status: ('A' for Active; 'I' for Inactive)
REMARK    1  A    between atoms: C_3  and  C_4
REMARK    2  A    between atoms: CA_5  and  C_6
REMARK    3  A    between atoms: CA_12  and  N_13
REMARK    4  A    between atoms: C_14  and  CA_16
REMARK    5  A    between atoms: CA_16  and  C_18
REMARK                            x       y       z     vdW  Elec       q    Type
REMARK                         _______ _______ _______ _____ _____    ______ ____
ROOT
ATOM      1  C   UNL     1     -11.218  12.336  67.084  0.00  0.00    +0.009 C 
ATOM      2  C   UNL     1     -11.254  13.158  68.335  0.00  0.00    +0.087 C 
ATOM      3  S   UNL     1     -10.441  14.771  68.020  0.00  0.00    -0.114 S 
ATOM      4  C   UNL     1      -9.254  14.255  66.611  0.00  0.00    +0.157 C 
ATOM      5  N   UNL     1     -10.432  14.140  65.648  0.00  0.00    -0.242 N 
ATOM      6  C   UNL     1     -10.664  15.571  65.571  0.00  0.00    +0.253 C 
ATOM      7  O   UNL     1     -11.162  16.205  64.589  0.00  0.00    -0.273 OA
ATOM      8  CA  UNL     1      -9.042  15.702  65.737  0.00  0.00    +0.200 C 
ATOM      9  CA  UNL     1     -11.158  12.928  65.894  0.00  0.00    +0.132 C 
ENDROOT
BRANCH   1  12
ATOM     10  C   UNL     1     -10.167   8.985  66.758  0.00  0.00    +0.031 C 
ATOM     11  C   UNL     1     -10.314  10.073  66.896  0.00  0.00    -0.026 C 
ATOM     12  C   UNL     1     -11.346  10.884  67.080  0.00  0.00    -0.007 C 
ENDBRANCH   1  12
BRANCH   8  13
ATOM     13  N   UNL     1      -9.111  16.686  67.008  0.00  0.00    -0.194 NA
ATOM     14  C   UNL     1      -8.029  17.622  67.083  0.00  0.00    +0.264 C 
ATOM     15  O   UNL     1      -6.942  17.178  66.600  0.00  0.00    -0.271 OA
BRANCH  14  16
ATOM     16  CA  UNL     1      -8.398  19.105  66.448  0.00  0.00    +0.191 C 
ATOM     17  N   UNL     1      -7.107  19.102  65.480  0.00  0.00    -0.118 NA
BRANCH  16  18
ATOM     18  C   UNL     1      -7.612  19.913  67.647  0.00  0.00    +0.004 A 
ATOM     19  C   UNL     1      -7.542  19.306  68.844  0.00  0.00    +0.001 A 
ATOM     20  C   UNL     1      -6.674  19.870  69.775  0.00  0.00    +0.042 A 
ATOM     21  C   UNL     1      -5.650  20.703  69.339  0.00  0.00    +0.196 A 
ATOM     22  O   UNL     1      -4.882  21.434  70.249  0.00  0.00    -0.287 OA
ATOM     23  C   UNL     1      -5.591  21.116  68.018  0.00  0.00    +0.042 A 
ATOM     24  C   UNL     1      -6.488  20.527  67.139  0.00  0.00    +0.001 A 
ENDBRANCH  16  18
ENDBRANCH  14  16
ENDBRANCH   8  13
BRANCH   9  25
ATOM     25  C   UNL     1     -11.960  12.438  64.772  0.00  0.00    +0.401 C 
ATOM     26  OXT UNL     1     -11.396  11.815  63.659  0.00  0.00    -0.239 OA
ATOM     27  O   UNL     1     -13.202  12.700  64.780  0.00  0.00    -0.239 OA
ENDBRANCH   9  25
TORSDOF 5
ENDMDL
MODEL 2
REMARK VINA RESULT:      -7.1      2.320      8.427
REMARK  Name = 
REMARK  5 active torsions:
REMARK  status: ('A' for Active; 'I' for Inactive)
REMARK    1  A    between atoms: C_3  and  C_4
REMARK    2  A    between atoms: CA_5  and  C_6
REMARK    3  A    between atoms: CA_12  and  N_13
REMARK    4  A    between atoms: C_14  and  CA_16
REMARK    5  A    between atoms: CA_16  and  C_18
REMARK                            x       y       z     vdW  Elec       q    Type
REMARK                         _______ _______ _______ _____ _____    ______ ____
ROOT
ATOM      1  C   UNL     1      -8.470  17.586  67.789  0.00  0.00    +0.009 C 
ATOM      2  C   UNL     1      -7.630  16.357  67.625  0.00  0.00    +0.087 C 
ATOM      3  S   UNL     1      -8.651  15.023  66.892  0.00  0.00    -0.114 S 
ATOM      4  C   UNL     1     -10.377  15.575  67.506  0.00  0.00    +0.157 C 
ATOM      5  N   UNL     1     -10.367  16.738  66.518  0.00  0.00    -0.242 N 
ATOM      6  C   UNL     1     -10.528  15.899  65.343  0.00  0.00    +0.253 C 
ATOM      7  O   UNL     1     -11.081  16.229  64.249  0.00  0.00    -0.273 OA
ATOM      8  CA  UNL     1     -11.426  14.943  66.321  0.00  0.00    +0.200 C 
ATOM      9  CA  UNL     1      -9.521  17.791  66.999  0.00  0.00    +0.132 C 
ENDROOT
BRANCH   1  12
ATOM     10  C   UNL     1      -6.422  19.898  69.493  0.00  0.00    +0.031 C 
ATOM     11  C   UNL     1      -6.930  19.178  68.824  0.00  0.00    -0.026 C 
ATOM     12  C   UNL     1      -8.144  18.655  68.725  0.00  0.00    -0.007 C 
ENDBRANCH   1  12
BRANCH   8  13
ATOM     13  N   UNL     1     -10.579  13.608  66.030  0.00  0.00    -0.194 NA
ATOM     14  C   UNL     1     -11.319  12.577  65.366  0.00  0.00    +0.264 C 
ATOM     15  O   UNL     1     -12.554  12.572  65.664  0.00  0.00    -0.271 OA
BRANCH  14  16
ATOM     16  CA  UNL     1     -11.104  12.565  63.726  0.00  0.00    +0.191 C 
ATOM     17  N   UNL     1     -12.611  12.056  63.450  0.00  0.00    -0.118 NA
BRANCH  16  18
ATOM     18  C   UNL     1     -10.491  11.037  63.728  0.00  0.00    +0.004 A 
ATOM     19  C   UNL     1      -9.698  10.700  62.696  0.00  0.00    +0.001 A 
ATOM     20  C   UNL     1      -8.989   9.509  62.823  0.00  0.00    +0.042 A 
ATOM     21  C   UNL     1      -8.781   8.968  64.086  0.00  0.00    +0.196 A 
ATOM     22  O   UNL     1      -8.245   7.687  64.240  0.00  0.00    -0.287 OA
ATOM     23  C   UNL     1      -9.417   9.502  65.195  0.00  0.00    +0.042 A 
ATOM     24  C   UNL     1     -10.117  10.684  65.005  0.00  0.00    +0.001 A 
ENDBRANCH  16  18
ENDBRANCH  14  16
ENDBRANCH   8  13
BRANCH   9  25
ATOM     25  C   UNL     1      -9.800  19.120  66.453  0.00  0.00    +0.401 C 
ATOM     26  OXT UNL     1      -8.881  19.820  65.671  0.00  0.00    -0.239 OA
ATOM     27  O   UNL     1     -10.879  19.686  66.809  0.00  0.00    -0.239 OA
ENDBRANCH   9  25
TORSDOF 5
ENDMDL
MODEL 3
REMARK VINA RESULT:      -7.0      2.138      8.286
REMARK  Name = 
REMARK  5 active torsions:
REMARK  status: ('A' for Active; 'I' for Inactive)
REMARK    1  A    between atoms: C_3  and  C_4
REMARK    2  A    between atoms: CA_5  and  C_6
REMARK    3  A    between atoms: CA_12  and  N_13
REMARK    4  A    between atoms: C_14  and  CA_16
REMARK    5  A    between atoms: CA_16  and  C_18
REMARK                            x       y       z     vdW  Elec       q    Type
REMARK                         _______ _______ _______ _____ _____    ______ ____
ROOT
ATOM      1  C   UNL     1      -6.871  17.768  67.631  0.00  0.00    +0.009 C 
ATOM      2  C   UNL     1      -6.437  16.364  67.339  0.00  0.00    +0.087 C 
ATOM      3  S   UNL     1      -7.918  15.325  67.045  0.00  0.00    -0.114 S 
ATOM      4  C   UNL     1      -9.199  16.304  68.074  0.00  0.00    +0.157 C 
ATOM      5  N   UNL     1      -9.205  17.416  67.028  0.00  0.00    -0.242 N 
ATOM      6  C   UNL     1      -9.903  16.633  66.024  0.00  0.00    +0.253 C 
ATOM      7  O   UNL     1     -10.660  17.080  65.109  0.00  0.00    -0.273 OA
ATOM      8  CA  UNL     1     -10.672  15.947  67.295  0.00  0.00    +0.200 C 
ATOM      9  CA  UNL     1      -8.028  18.225  67.158  0.00  0.00    +0.132 C 
ENDROOT
BRANCH   1  12
ATOM     10  C   UNL     1      -5.931  19.948  70.238  0.00  0.00    +0.031 C 
ATOM     11  C   UNL     1      -6.330  19.178  69.553  0.00  0.00    -0.026 C 
ATOM     12  C   UNL     1      -6.036  18.729  68.341  0.00  0.00    -0.007 C 
ENDBRANCH   1  12
BRANCH   8  13
ATOM     13  N   UNL     1     -10.295  14.437  66.890  0.00  0.00    -0.194 NA
ATOM     14  C   UNL     1     -11.414  13.643  66.480  0.00  0.00    +0.264 C 
ATOM     15  O   UNL     1     -12.498  13.963  67.060  0.00  0.00    -0.271 OA
BRANCH  14  16
ATOM     16  CA  UNL     1     -11.615  13.586  64.839  0.00  0.00    +0.191 C 
ATOM     17  N   UNL     1     -12.892  12.605  64.947  0.00  0.00    -0.118 NA
BRANCH  16  18
ATOM     18  C   UNL     1     -10.556  12.338  64.663  0.00  0.00    +0.004 A 
ATOM     19  C   UNL     1     -10.716  11.285  65.484  0.00  0.00    +0.001 A 
ATOM     20  C   UNL     1      -9.988  10.141  65.173  0.00  0.00    +0.042 A 
ATOM     21  C   UNL     1      -9.502   9.969  63.883  0.00  0.00    +0.196 A 
ATOM     22  O   UNL     1      -8.612   8.935  63.581  0.00  0.00    -0.287 OA
ATOM     23  C   UNL     1      -9.582  10.996  62.956  0.00  0.00    +0.042 A 
ATOM     24  C   UNL     1     -10.312  12.115  63.326  0.00  0.00    +0.001 A 
ENDBRANCH  16  18
ENDBRANCH  14  16
ENDBRANCH   8  13
BRANCH   9  25
ATOM     25  C   UNL     1      -8.129  19.575  66.603  0.00  0.00    +0.401 C 
ATOM     26  OXT UNL     1      -8.766  20.618  67.275  0.00  0.00    -0.239 OA
ATOM     27  O   UNL     1      -7.716  19.754  65.416  0.00  0.00    -0.239 OA
ENDBRANCH   9  25
TORSDOF 5
ENDMDL
MODEL 4
REMARK VINA RESULT:      -7.0      3.573      7.687
REMARK  Name = 
REMARK  5 active torsions:
REMARK  status: ('A' for Active; 'I' for Inactive)
REMARK    1  A    between atoms: C_3  and  C_4
REMARK    2  A    between atoms: CA_5  and  C_6
REMARK    3  A    between atoms: CA_12  and  N_13
REMARK    4  A    between atoms: C_14  and  CA_16
REMARK    5  A    between atoms: CA_16  and  C_18
REMARK                            x       y       z     vdW  Elec       q    Type
REMARK                         _______ _______ _______ _____ _____    ______ ____
ROOT
ATOM      1  C   UNL     1     -11.749  14.924  69.483  0.00  0.00    +0.009 C 
ATOM      2  C   UNL     1     -11.665  13.433  69.591  0.00  0.00    +0.087 C 
ATOM      3  S   UNL     1     -11.574  12.711  67.909  0.00  0.00    -0.114 S 
ATOM      4  C   UNL     1     -12.475  14.082  66.928  0.00  0.00    +0.157 C 
ATOM      5  N   UNL     1     -11.272  15.006  67.095  0.00  0.00    -0.242 N 
ATOM      6  C   UNL     1     -10.419  14.258  66.189  0.00  0.00    +0.253 C 
ATOM      7  O   UNL     1      -9.467  14.724  65.490  0.00  0.00    -0.273 OA
ATOM      8  CA  UNL     1     -11.801  13.948  65.369  0.00  0.00    +0.200 C 
ATOM      9  CA  UNL     1     -11.244  15.549  68.422  0.00  0.00    +0.132 C 
ENDROOT
BRANCH   1  12
ATOM     10  C   UNL     1     -12.175  16.129  72.770  0.00  0.00    +0.031 C 
ATOM     11  C   UNL     1     -11.874  15.688  71.801  0.00  0.00    -0.026 C 
ATOM     12  C   UNL     1     -12.281  15.772  70.543  0.00  0.00    -0.007 C 
ENDBRANCH   1  12
BRANCH   8  13
ATOM     13  N   UNL     1     -11.622  12.349  65.393  0.00  0.00    -0.194 NA
ATOM     14  C   UNL     1     -11.234  11.784  64.136  0.00  0.00    +0.264 C 
ATOM     15  O   UNL     1     -11.684  12.423  63.135  0.00  0.00    -0.271 OA
BRANCH  14  16
ATOM     16  CA  UNL     1      -9.603  11.542  63.999  0.00  0.00    +0.191 C 
ATOM     17  N   UNL     1      -9.792  10.224  63.086  0.00  0.00    -0.118 NA
BRANCH  16  18
ATOM     18  C   UNL     1      -9.524  10.675  65.396  0.00  0.00    +0.004 A 
ATOM     19  C   UNL     1      -9.795   9.360  65.311  0.00  0.00    +0.001 A 
ATOM     20  C   UNL     1      -9.489   8.591  66.430  0.00  0.00    +0.042 A 
ATOM     21  C   UNL     1      -8.575   9.070  67.361  0.00  0.00    +0.196 A 
ATOM     22  O   UNL     1      -8.385   8.421  68.583  0.00  0.00    -0.287 OA
ATOM     23  C   UNL     1      -8.100  10.370  67.279  0.00  0.00    +0.042 A 
ATOM     24  C   UNL     1      -8.446  11.090  66.146  0.00  0.00    +0.001 A 
ENDBRANCH  16  18
ENDBRANCH  14  16
ENDBRANCH   8  13
BRANCH   9  25
ATOM     25  C   UNL     1     -10.491  16.795  68.576  0.00  0.00    +0.401 C 
ATOM     26  OXT UNL     1     -10.961  18.020  68.103  0.00  0.00    -0.239 OA
ATOM     27  O   UNL     1      -9.320  16.717  69.058  0.00  0.00    -0.239 OA
ENDBRANCH   9  25
TORSDOF 5
ENDMDL
MODEL 5
REMARK VINA RESULT:      -7.0      3.817      9.117
REMARK  Name = 
REMARK  5 active torsions:
REMARK  status: ('A' for Active; 'I' for Inactive)
REMARK    1  A    between atoms: C_3  and  C_4
REMARK    2  A    between atoms: CA_5  and  C_6
REMARK    3  A    between atoms: CA_12  and  N_13
REMARK    4  A    between atoms: C_14  and  CA_16
REMARK    5  A    between atoms: CA_16  and  C_18
REMARK                            x       y       z     vdW  Elec       q    Type
REMARK                         _______ _______ _______ _____ _____    ______ ____
ROOT
ATOM      1  C   UNL     1     -10.525  17.047  67.994  0.00  0.00    +0.009 C 
ATOM      2  C   UNL     1     -10.189  16.690  69.409  0.00  0.00    +0.087 C 
ATOM      3  S   UNL     1     -10.568  14.919  69.690  0.00  0.00    -0.114 S 
ATOM      4  C   UNL     1     -11.942  14.680  68.382  0.00  0.00    +0.157 C 
ATOM      5  N   UNL     1     -10.905  14.754  67.264  0.00  0.00    -0.242 N 
ATOM      6  C   UNL     1     -10.310  13.465  67.567  0.00  0.00    +0.253 C 
ATOM      7  O   UNL     1      -9.732  12.688  66.745  0.00  0.00    -0.273 OA
ATOM      8  CA  UNL     1     -11.826  13.024  67.999  0.00  0.00    +0.200 C 
ATOM      9  CA  UNL     1     -10.509  16.115  67.045  0.00  0.00    +0.132 C 
ENDROOT
BRANCH   1  12
ATOM     10  C   UNL     1      -9.875  20.479  67.508  0.00  0.00    +0.031 C 
ATOM     11  C   UNL     1      -9.890  19.385  67.667  0.00  0.00    -0.026 C 
ATOM     12  C   UNL     1     -10.785  18.413  67.557  0.00  0.00    -0.007 C 
ENDBRANCH   1  12
BRANCH   8  13
ATOM     13  N   UNL     1     -11.413  12.531  69.473  0.00  0.00    -0.194 NA
ATOM     14  C   UNL     1     -11.630  11.135  69.707  0.00  0.00    +0.264 C 
ATOM     15  O   UNL     1     -12.617  10.663  69.062  0.00  0.00    -0.271 OA
BRANCH  14  16
ATOM     16  CA  UNL     1     -10.277  10.212  69.479  0.00  0.00    +0.191 C 
ATOM     17  N   UNL     1     -10.775   9.692  68.034  0.00  0.00    -0.118 NA
BRANCH  16  18
ATOM     18  C   UNL     1     -10.918   8.917  70.267  0.00  0.00    +0.004 A 
ATOM     19  C   UNL     1     -10.756   7.713  69.690  0.00  0.00    +0.001 A 
ATOM     20  C   UNL     1     -11.076   6.606  70.469  0.00  0.00    +0.042 A 
ATOM     21  C   UNL     1     -11.119   6.731  71.853  0.00  0.00    +0.196 A 
ATOM     22  O   UNL     1     -11.618   5.700  72.653  0.00  0.00    -0.287 OA
ATOM     23  C   UNL     1     -11.022   7.977  72.451  0.00  0.00    +0.042 A 
ATOM     24  C   UNL     1     -10.711   9.044  71.623  0.00  0.00    +0.001 A 
ENDBRANCH  16  18
ENDBRANCH  14  16
ENDBRANCH   8  13
BRANCH   9  25
ATOM     25  C   UNL     1      -9.943  16.399  65.725  0.00  0.00    +0.401 C 
ATOM     26  OXT UNL     1     -10.720  16.444  64.568  0.00  0.00    -0.239 OA
ATOM     27  O   UNL     1      -8.681  16.495  65.637  0.00  0.00    -0.239 OA
ENDBRANCH   9  25
TORSDOF 5
ENDMDL
MODEL 6
REMARK VINA RESULT:      -6.7      1.982      2.775
REMARK  Name = 
REMARK  5 active torsions:
REMARK  status: ('A' for Active; 'I' for Inactive)
REMARK    1  A    between atoms: C_3  and  C_4
REMARK    2  A    between atoms: CA_5  and  C_6
REMARK    3  A    between atoms: CA_12  and  N_13
REMARK    4  A    between atoms: C_14  and  CA_16
REMARK    5  A    between atoms: CA_16  and  C_18
REMARK                            x       y       z     vdW  Elec       q    Type
REMARK                         _______ _______ _______ _____ _____    ______ ____
ROOT
ATOM      1  C   UNL     1      -9.553  13.534  66.509  0.00  0.00    +0.009 C 
ATOM      2  C   UNL     1      -8.284  13.633  67.299  0.00  0.00    +0.087 C 
ATOM      3  S   UNL     1      -7.890  15.400  67.587  0.00  0.00    -0.114 S 
ATOM      4  C   UNL     1      -8.760  16.169  66.068  0.00  0.00    +0.157 C 
ATOM      5  N   UNL     1     -10.123  15.895  66.697  0.00  0.00    -0.242 N 
ATOM      6  C   UNL     1      -9.985  16.910  67.727  0.00  0.00    +0.253 C 
ATOM      7  O   UNL     1     -10.927  17.553  68.285  0.00  0.00    -0.273 OA
ATOM      8  CA  UNL     1      -9.142  17.742  66.598  0.00  0.00    +0.200 C 
ATOM      9  CA  UNL     1     -10.459  14.507  66.570  0.00  0.00    +0.132 C 
ENDROOT
BRANCH   1  12
ATOM     10  C   UNL     1     -10.353  11.682  63.617  0.00  0.00    +0.031 C 
ATOM     11  C   UNL     1     -10.015  12.381  64.404  0.00  0.00    -0.026 C 
ATOM     12  C   UNL     1      -9.914  12.360  65.725  0.00  0.00    -0.007 C 
ENDBRANCH   1  12
BRANCH   8  13
ATOM     13  N   UNL     1      -7.836  17.940  67.516  0.00  0.00    -0.194 NA
ATOM     14  C   UNL     1      -7.023  19.059  67.144  0.00  0.00    +0.264 C 
ATOM     15  O   UNL     1      -7.049  19.310  65.899  0.00  0.00    -0.271 OA
BRANCH  14  16
ATOM     16  CA  UNL     1      -7.334  20.421  68.030  0.00  0.00    +0.191 C 
ATOM     17  N   UNL     1      -6.389  21.341  67.100  0.00  0.00    -0.118 NA
BRANCH  16  18
ATOM     18  C   UNL     1      -6.127  20.107  69.104  0.00  0.00    +0.004 A 
ATOM     19  C   UNL     1      -4.960  20.748  68.911  0.00  0.00    +0.001 A 
ATOM     20  C   UNL     1      -4.034  20.674  69.946  0.00  0.00    +0.042 A 
ATOM     21  C   UNL     1      -4.465  20.352  71.228  0.00  0.00    +0.196 A 
ATOM     22  O   UNL     1      -3.549  20.083  72.248  0.00  0.00    -0.287 OA
ATOM     23  C   UNL     1      -5.768  19.935  71.450  0.00  0.00    +0.042 A 
ATOM     24  C   UNL     1      -6.642  20.022  70.378  0.00  0.00    +0.001 A 
ENDBRANCH  16  18
ENDBRANCH  14  16
ENDBRANCH   8  13
BRANCH   9  25
ATOM     25  C   UNL     1     -11.887  14.196  66.651  0.00  0.00    +0.401 C 
ATOM     26  OXT UNL     1     -12.737  14.277  65.549  0.00  0.00    -0.239 OA
ATOM     27  O   UNL     1     -12.371  13.956  67.799  0.00  0.00    -0.239 OA
ENDBRANCH   9  25
TORSDOF 5
ENDMDL
MODEL 7
REMARK VINA RESULT:      -6.7      2.067      2.587
REMARK  Name = 
REMARK  5 active torsions:
REMARK  status: ('A' for Active; 'I' for Inactive)
REMARK    1  A    between atoms: C_3  and  C_4
REMARK    2  A    between atoms: CA_5  and  C_6
REMARK    3  A    between atoms: CA_12  and  N_13
REMARK    4  A    between atoms: C_14  and  CA_16
REMARK    5  A    between atoms: CA_16  and  C_18
REMARK                            x       y       z     vdW  Elec       q    Type
REMARK                         _______ _______ _______ _____ _____    ______ ____
ROOT
ATOM      1  C   UNL     1      -9.135  12.614  67.310  0.00  0.00    +0.009 C 
ATOM      2  C   UNL     1      -7.847  13.372  67.403  0.00  0.00    +0.087 C 
ATOM      3  S   UNL     1      -8.155  15.133  67.000  0.00  0.00    -0.114 S 
ATOM      4  C   UNL     1      -9.687  14.936  65.872  0.00  0.00    +0.157 C 
ATOM      5  N   UNL     1     -10.546  14.587  67.085  0.00  0.00    -0.242 N 
ATOM      6  C   UNL     1     -10.532  15.932  67.633  0.00  0.00    +0.253 C 
ATOM      7  O   UNL     1     -11.433  16.464  68.351  0.00  0.00    -0.273 OA
ATOM      8  CA  UNL     1     -10.505  16.417  66.070  0.00  0.00    +0.200 C 
ATOM      9  CA  UNL     1     -10.296  13.237  67.498  0.00  0.00    +0.132 C 
ENDROOT
BRANCH   1  12
ATOM     10  C   UNL     1      -9.544   9.592  65.538  0.00  0.00    +0.031 C 
ATOM     11  C   UNL     1      -9.371  10.614  65.925  0.00  0.00    -0.026 C 
ATOM     12  C   UNL     1      -9.198  11.170  67.115  0.00  0.00    -0.007 C 
ENDBRANCH   1  12
BRANCH   8  13
ATOM     13  N   UNL     1      -9.186  17.325  66.229  0.00  0.00    -0.194 NA
ATOM     14  C   UNL     1      -9.449  18.730  66.313  0.00  0.00    +0.264 C 
ATOM     15  O   UNL     1     -10.474  19.092  65.655  0.00  0.00    -0.271 OA
BRANCH  14  16
ATOM     16  CA  UNL     1      -9.512  19.296  67.867  0.00  0.00    +0.191 C 
ATOM     17  N   UNL     1      -9.864  20.798  67.392  0.00  0.00    -0.118 NA
BRANCH  16  18
ATOM     18  C   UNL     1      -7.894  19.593  67.919  0.00  0.00    +0.004 A 
ATOM     19  C   UNL     1      -7.447  20.647  67.214  0.00  0.00    +0.001 A 
ATOM     20  C   UNL     1      -6.135  21.041  67.455  0.00  0.00    +0.042 A 
ATOM     21  C   UNL     1      -5.512  20.662  68.639  0.00  0.00    +0.196 A 
ATOM     22  O   UNL     1      -4.145  20.874  68.833  0.00  0.00    -0.287 OA
ATOM     23  C   UNL     1      -6.117  19.755  69.494  0.00  0.00    +0.042 A 
ATOM     24  C   UNL     1      -7.422  19.392  69.197  0.00  0.00    +0.001 A 
ENDBRANCH  16  18
ENDBRANCH  14  16
ENDBRANCH   8  13
BRANCH   9  25
ATOM     25  C   UNL     1     -11.363  12.611  68.279  0.00  0.00    +0.401 C 
ATOM     26  OXT UNL     1     -12.234  11.664  67.739  0.00  0.00    -0.239 OA
ATOM     27  O   UNL     1     -11.559  13.042  69.457  0.00  0.00    -0.239 OA
ENDBRANCH   9  25
TORSDOF 5
ENDMDL
MODEL 8
REMARK VINA RESULT:      -6.5      3.527      8.333
REMARK  Name = 
REMARK  5 active torsions:
REMARK  status: ('A' for Active; 'I' for Inactive)
REMARK    1  A    between atoms: C_3  and  C_4
REMARK    2  A    between atoms: CA_5  and  C_6
REMARK    3  A    between atoms: CA_12  and  N_13
REMARK    4  A    between atoms: C_14  and  CA_16
REMARK    5  A    between atoms: CA_16  and  C_18
REMARK                            x       y       z     vdW  Elec       q    Type
REMARK                         _______ _______ _______ _____ _____    ______ ____
ROOT
ATOM      1  C   UNL     1      -5.828  20.336  66.718  0.00  0.00    +0.009 C 
ATOM      2  C   UNL     1      -5.915  20.226  68.209  0.00  0.00    +0.087 C 
ATOM      3  S   UNL     1      -7.370  19.203  68.653  0.00  0.00    -0.114 S 
ATOM      4  C   UNL     1      -8.465  19.530  67.119  0.00  0.00    +0.157 C 
ATOM      5  N   UNL     1      -7.542  18.666  66.265  0.00  0.00    -0.242 N 
ATOM      6  C   UNL     1      -7.949  17.414  66.878  0.00  0.00    +0.253 C 
ATOM      7  O   UNL     1      -7.948  16.268  66.330  0.00  0.00    -0.273 OA
ATOM      8  CA  UNL     1      -9.418  18.121  67.019  0.00  0.00    +0.200 C 
ATOM      9  CA  UNL     1      -6.344  19.385  65.943  0.00  0.00    +0.132 C 
ENDROOT
BRANCH   1  12
ATOM     10  C   UNL     1      -3.058  22.330  65.831  0.00  0.00    +0.031 C 
ATOM     11  C   UNL     1      -3.797  21.573  66.151  0.00  0.00    -0.026 C 
ATOM     12  C   UNL     1      -5.107  21.406  66.038  0.00  0.00    -0.007 C 
ENDBRANCH   1  12
BRANCH   8  13
ATOM     13  N   UNL     1      -9.539  17.878  68.604  0.00  0.00    -0.194 NA
ATOM     14  C   UNL     1     -10.564  16.951  68.978  0.00  0.00    +0.264 C 
ATOM     15  O   UNL     1     -11.562  16.958  68.192  0.00  0.00    -0.271 OA
BRANCH  14  16
ATOM     16  CA  UNL     1     -10.005  15.411  69.211  0.00  0.00    +0.191 C 
ATOM     17  N   UNL     1     -10.565  14.903  67.785  0.00  0.00    -0.118 NA
BRANCH  16  18
ATOM     18  C   UNL     1     -11.363  14.944  70.015  0.00  0.00    +0.004 A 
ATOM     19  C   UNL     1     -11.677  13.637  69.968  0.00  0.00    +0.001 A 
ATOM     20  C   UNL     1     -12.672  13.208  70.841  0.00  0.00    +0.042 A 
ATOM     21  C   UNL     1     -12.977  13.972  71.961  0.00  0.00    +0.196 A 
ATOM     22  O   UNL     1     -14.090  13.677  72.752  0.00  0.00    -0.287 OA
ATOM     23  C   UNL     1     -12.430  15.235  72.123  0.00  0.00    +0.042 A 
ATOM     24  C   UNL     1     -11.450  15.611  71.216  0.00  0.00    +0.001 A 
ENDBRANCH  16  18
ENDBRANCH  14  16
ENDBRANCH   8  13
BRANCH   9  25
ATOM     25  C   UNL     1      -5.628  18.914  64.757  0.00  0.00    +0.401 C 
ATOM     26  OXT UNL     1      -5.991  19.284  63.463  0.00  0.00    -0.239 OA
ATOM     27  O   UNL     1      -4.716  18.049  64.929  0.00  0.00    -0.239 OA
ENDBRANCH   9  25
TORSDOF 5
ENDMDL
MODEL 9
REMARK VINA RESULT:      -6.5      2.550      8.376
REMARK  Name = 
REMARK  5 active torsions:
REMARK  status: ('A' for Active; 'I' for Inactive)
REMARK    1  A    between atoms: C_3  and  C_4
REMARK    2  A    between atoms: CA_5  and  C_6
REMARK    3  A    between atoms: CA_12  and  N_13
REMARK    4  A    between atoms: C_14  and  CA_16
REMARK    5  A    between atoms: CA_16  and  C_18
REMARK                            x       y       z     vdW  Elec       q    Type
REMARK                         _______ _______ _______ _____ _____    ______ ____
ROOT
ATOM      1  C   UNL     1      -7.902  18.456  67.234  0.00  0.00    +0.009 C 
ATOM      2  C   UNL     1      -7.518  17.448  66.195  0.00  0.00    +0.087 C 
ATOM      3  S   UNL     1      -8.219  15.817  66.651  0.00  0.00    -0.114 S 
ATOM      4  C   UNL     1      -8.316  16.035  68.548  0.00  0.00    +0.157 C 
ATOM      5  N   UNL     1      -9.483  17.005  68.387  0.00  0.00    -0.242 N 
ATOM      6  C   UNL     1     -10.432  15.984  67.978  0.00  0.00    +0.253 C 
ATOM      7  O   UNL     1     -11.689  16.006  68.157  0.00  0.00    -0.273 OA
ATOM      8  CA  UNL     1      -9.599  15.003  68.989  0.00  0.00    +0.200 C 
ATOM      9  CA  UNL     1      -9.007  18.287  67.957  0.00  0.00    +0.132 C 
ENDROOT
BRANCH   1  12
ATOM     10  C   UNL     1      -5.750  20.719  68.874  0.00  0.00    +0.031 C 
ATOM     11  C   UNL     1      -6.329  19.875  68.453  0.00  0.00    -0.026 C 
ATOM     12  C   UNL     1      -7.173  19.700  67.446  0.00  0.00    -0.007 C 
ENDBRANCH   1  12
BRANCH   8  13
ATOM     13  N   UNL     1      -9.306  13.876  67.880  0.00  0.00    -0.194 NA
ATOM     14  C   UNL     1     -10.142  12.718  67.987  0.00  0.00    +0.264 C 
ATOM     15  O   UNL     1     -10.489  12.454  69.180  0.00  0.00    -0.271 OA
BRANCH  14  16
ATOM     16  CA  UNL     1     -11.458  12.762  66.984  0.00  0.00    +0.191 C 
ATOM     17  N   UNL     1     -12.011  11.341  67.513  0.00  0.00    -0.118 NA
BRANCH  16  18
ATOM     18  C   UNL     1     -10.638  12.081  65.731  0.00  0.00    +0.004 A 
ATOM     19  C   UNL     1     -10.206  10.819  65.902  0.00  0.00    +0.001 A 
ATOM     20  C   UNL     1      -9.737  10.166  64.766  0.00  0.00    +0.042 A 
ATOM     21  C   UNL     1     -10.111  10.624  63.509  0.00  0.00    +0.196 A 
ATOM     22  O   UNL     1      -9.515  10.118  62.351  0.00  0.00    -0.287 OA
ATOM     23  C   UNL     1     -10.796  11.821  63.370  0.00  0.00    +0.042 A 
ATOM     24  C   UNL     1     -11.230  12.431  64.537  0.00  0.00    +0.001 A 
ENDBRANCH  16  18
ENDBRANCH  14  16
ENDBRANCH   8  13
BRANCH   9  25
ATOM     25  C   UNL     1      -9.893  19.416  68.246  0.00  0.00    +0.401 C 
ATOM     26  OXT UNL     1     -10.032  19.954  69.525  0.00  0.00    -0.239 OA
ATOM     27  O   UNL     1     -10.638  19.832  67.307  0.00  0.00    -0.239 OA
ENDBRANCH   9  25
TORSDOF 5
ENDMDL
