MODEL 1
REMARK VINA RESULT:      -6.0      0.000      0.000
REMARK  Name = 
REMARK  5 active torsions:
REMARK  status: ('A' for Active; 'I' for Inactive)
REMARK    1  A    between atoms: N_2  and  C_4
REMARK    2  A    between atoms: C_4  and  C_5
REMARK    3  A    between atoms: C_5  and  C_6
REMARK    4  A    between atoms: C_6  and  C_7
REMARK    5  A    between atoms: C_6  and  C_13
REMARK                            x       y       z     vdW  Elec       q    Type
REMARK                         _______ _______ _______ _____ _____    ______ ____
ROOT
ATOM      1  C   UNL     1     -11.045  14.987  69.689  0.00  0.00    +0.064 C 
ENDROOT
BRANCH   1   2
ATOM      2  C   UNL     1     -11.969  13.975  68.823  0.00  0.00    +0.063 A 
ATOM      3  N   UNL     1     -12.147  14.428  67.554  0.00  0.00    -0.248 NA
ATOM      4  C   UNL     1     -12.015  13.666  66.469  0.00  0.00    +0.098 A 
ATOM      5  C   UNL     1     -11.635  12.334  66.546  0.00  0.00    +0.021 A 
ATOM      6  C   UNL     1     -11.405  11.834  67.802  0.00  0.00    +0.003 A 
ATOM      7  C   UNL     1     -11.419  12.697  68.860  0.00  0.00    +0.015 A 
ENDBRANCH   1   2
BRANCH   1   8
ATOM      8  C   UNL     1     -12.254  15.389  70.690  0.00  0.00    -0.017 A 
ATOM      9  C   UNL     1     -13.074  14.318  71.031  0.00  0.00    -0.004 A 
ATOM     10  C   UNL     1     -13.301  13.928  72.334  0.00  0.00    -0.000 A 
ATOM     11  C   UNL     1     -12.955  14.772  73.361  0.00  0.00    -0.000 A 
ATOM     12  C   UNL     1     -12.495  16.028  72.988  0.00  0.00    -0.000 A 
ATOM     13  C   UNL     1     -11.828  16.150  71.774  0.00  0.00    -0.004 A 
ENDBRANCH   1   8
BRANCH   1  14
ATOM     14  C   UNL     1     -11.289  16.252  68.672  0.00  0.00    +0.028 C 
BRANCH  14  15
ATOM     15  C   UNL     1     -10.141  17.171  68.763  0.00  0.00    +0.073 C 
BRANCH  15  17
ATOM     16  C   UNL     1     -10.232  17.586  66.628  0.00  0.00    +0.090 C 
ATOM     17  N   UNL     1     -10.149  17.986  67.592  0.00  0.00    -0.270 NA
ATOM     18  C   UNL     1     -10.157  19.404  67.834  0.00  0.00    +0.090 C 
ENDBRANCH  15  17
ENDBRANCH  14  15
ENDBRANCH   1  14
TORSDOF 5
ENDMDL
MODEL 2
REMARK VINA RESULT:      -5.8      1.552      4.493
REMARK  Name = 
REMARK  5 active torsions:
REMARK  status: ('A' for Active; 'I' for Inactive)
REMARK    1  A    between atoms: N_2  and  C_4
REMARK    2  A    between atoms: C_4  and  C_5
REMARK    3  A    between atoms: C_5  and  C_6
REMARK    4  A    between atoms: C_6  and  C_7
REMARK    5  A    between atoms: C_6  and  C_13
REMARK                            x       y       z     vdW  Elec       q    Type
REMARK                         _______ _______ _______ _____ _____    ______ ____
ROOT
ATOM      1  C   UNL     1     -11.878  15.687  69.218  0.00  0.00    +0.064 C 
ENDROOT
BRANCH   1   2
ATOM      2  C   UNL     1     -11.701  15.026  70.687  0.00  0.00    +0.063 A 
ATOM      3  N   UNL     1     -11.575  15.977  71.649  0.00  0.00    -0.248 NA
ATOM      4  C   UNL     1     -12.242  15.959  72.802  0.00  0.00    +0.098 A 
ATOM      5  C   UNL     1     -13.169  14.971  73.102  0.00  0.00    +0.021 A 
ATOM      6  C   UNL     1     -13.362  14.004  72.149  0.00  0.00    +0.003 A 
ATOM      7  C   UNL     1     -12.757  14.154  70.935  0.00  0.00    +0.015 A 
ENDBRANCH   1   2
BRANCH   1   8
ATOM      8  C   UNL     1     -11.492  14.316  68.447  0.00  0.00    -0.017 A 
ATOM      9  C   UNL     1     -11.990  14.246  67.151  0.00  0.00    -0.004 A 
ATOM     10  C   UNL     1     -11.189  14.056  66.044  0.00  0.00    -0.000 A 
ATOM     11  C   UNL     1      -9.893  13.635  66.214  0.00  0.00    -0.000 A 
ATOM     12  C   UNL     1      -9.521  13.318  67.515  0.00  0.00    -0.000 A 
ATOM     13  C   UNL     1     -10.143  13.994  68.559  0.00  0.00    -0.004 A 
ENDBRANCH   1   8
BRANCH   1  14
ATOM     14  C   UNL     1     -10.352  16.291  69.187  0.00  0.00    +0.028 C 
BRANCH  14  15
ATOM     15  C   UNL     1     -10.361  17.586  68.483  0.00  0.00    +0.073 C 
BRANCH  15  17
ATOM     16  C   UNL     1     -10.233  17.621  66.310  0.00  0.00    +0.090 C 
ATOM     17  N   UNL     1      -9.750  17.387  67.210  0.00  0.00    -0.270 NA
ATOM     18  C   UNL     1      -8.378  16.958  67.250  0.00  0.00    +0.090 C 
ENDBRANCH  15  17
ENDBRANCH  14  15
ENDBRANCH   1  14
TORSDOF 5
ENDMDL
MODEL 3
REMARK VINA RESULT:      -5.7      1.603      5.164
REMARK  Name = 
REMARK  5 active torsions:
REMARK  status: ('A' for Active; 'I' for Inactive)
REMARK    1  A    between atoms: N_2  and  C_4
REMARK    2  A    between atoms: C_4  and  C_5
REMARK    3  A    between atoms: C_5  and  C_6
REMARK    4  A    between atoms: C_6  and  C_7
REMARK    5  A    between atoms: C_6  and  C_13
REMARK                            x       y       z     vdW  Elec       q    Type
REMARK                         _______ _______ _______ _____ _____    ______ ____
ROOT
ATOM      1  C   UNL     1     -11.079  14.683  69.918  0.00  0.00    +0.064 C 
ENDROOT
BRANCH   1   2
ATOM      2  C   UNL     1     -12.105  15.698  70.655  0.00  0.00    +0.063 A 
ATOM      3  N   UNL     1     -13.371  15.205  70.665  0.00  0.00    -0.248 NA
ATOM      4  C   UNL     1     -14.155  15.195  71.742  0.00  0.00    +0.098 A 
ATOM      5  C   UNL     1     -13.718  15.655  72.976  0.00  0.00    +0.021 A 
ATOM      6  C   UNL     1     -12.433  16.131  73.032  0.00  0.00    +0.003 A 
ATOM      7  C   UNL     1     -11.635  15.986  71.933  0.00  0.00    +0.015 A 
ENDBRANCH   1   2
BRANCH   1   8
ATOM      8  C   UNL     1     -10.210  15.883  69.262  0.00  0.00    -0.017 A 
ATOM      9  C   UNL     1      -8.972  15.474  68.778  0.00  0.00    -0.004 A 
ATOM     10  C   UNL     1      -8.576  15.658  67.470  0.00  0.00    -0.000 A 
ATOM     11  C   UNL     1      -9.281  16.521  66.667  0.00  0.00    -0.000 A 
ATOM     12  C   UNL     1     -10.294  17.240  67.287  0.00  0.00    -0.000 A 
ATOM     13  C   UNL     1     -10.945  16.659  68.371  0.00  0.00    -0.004 A 
ENDBRANCH   1   8
BRANCH   1  14
ATOM     14  C   UNL     1     -12.046  14.488  68.605  0.00  0.00    +0.028 C 
BRANCH  14  15
ATOM     15  C   UNL     1     -11.773  13.174  67.997  0.00  0.00    +0.073 C 
BRANCH  15  17
ATOM     16  C   UNL     1     -12.198  14.004  66.030  0.00  0.00    +0.090 C 
ATOM     17  N   UNL     1     -11.579  13.379  66.599  0.00  0.00    -0.270 NA
ATOM     18  C   UNL     1     -10.402  12.764  66.048  0.00  0.00    +0.090 C 
ENDBRANCH  15  17
ENDBRANCH  14  15
ENDBRANCH   1  14
TORSDOF 5
ENDMDL
MODEL 4
REMARK VINA RESULT:      -5.7      3.390      4.734
REMARK  Name = 
REMARK  5 active torsions:
REMARK  status: ('A' for Active; 'I' for Inactive)
REMARK    1  A    between atoms: N_2  and  C_4
REMARK    2  A    between atoms: C_4  and  C_5
REMARK    3  A    between atoms: C_5  and  C_6
REMARK    4  A    between atoms: C_6  and  C_7
REMARK    5  A    between atoms: C_6  and  C_13
REMARK                            x       y       z     vdW  Elec       q    Type
REMARK                         _______ _______ _______ _____ _____    ______ ____
ROOT
ATOM      1  C   UNL     1      -9.590  16.085  67.360  0.00  0.00    +0.064 C 
ENDROOT
BRANCH   1   2
ATOM      2  C   UNL     1     -10.651  15.443  66.316  0.00  0.00    +0.063 A 
ATOM      3  N   UNL     1     -10.023  14.729  65.346  0.00  0.00    -0.248 NA
ATOM      4  C   UNL     1     -10.402  13.512  64.958  0.00  0.00    +0.098 A 
ATOM      5  C   UNL     1     -11.461  12.844  65.555  0.00  0.00    +0.021 A 
ATOM      6  C   UNL     1     -12.108  13.505  66.567  0.00  0.00    +0.003 A 
ATOM      7  C   UNL     1     -11.588  14.686  67.013  0.00  0.00    +0.015 A 
ENDBRANCH   1   2
BRANCH   1   8
ATOM      8  C   UNL     1     -10.397  17.486  67.468  0.00  0.00    -0.017 A 
ATOM      9  C   UNL     1     -10.059  18.239  68.587  0.00  0.00    -0.004 A 
ATOM     10  C   UNL     1      -9.587  19.532  68.512  0.00  0.00    -0.000 A 
ATOM     11  C   UNL     1      -9.712  20.228  67.334  0.00  0.00    -0.000 A 
ATOM     12  C   UNL     1     -10.424  19.593  66.324  0.00  0.00    -0.000 A 
ATOM     13  C   UNL     1     -10.398  18.204  66.276  0.00  0.00    -0.004 A 
ENDBRANCH   1   8
BRANCH   1  14
ATOM     14  C   UNL     1      -8.578  16.607  66.177  0.00  0.00    +0.028 C 
BRANCH  14  15
ATOM     15  C   UNL     1      -7.189  16.518  66.659  0.00  0.00    +0.073 C 
BRANCH  15  17
ATOM     16  C   UNL     1      -6.308  18.177  67.760  0.00  0.00    +0.090 C 
ATOM     17  N   UNL     1      -6.714  17.849  66.851  0.00  0.00    -0.270 NA
ATOM     18  C   UNL     1      -6.720  18.677  65.675  0.00  0.00    +0.090 C 
ENDBRANCH  15  17
ENDBRANCH  14  15
ENDBRANCH   1  14
TORSDOF 5
ENDMDL
MODEL 5
REMARK VINA RESULT:      -5.7      1.625      3.630
REMARK  Name = 
REMARK  5 active torsions:
REMARK  status: ('A' for Active; 'I' for Inactive)
REMARK    1  A    between atoms: N_2  and  C_4
REMARK    2  A    between atoms: C_4  and  C_5
REMARK    3  A    between atoms: C_5  and  C_6
REMARK    4  A    between atoms: C_6  and  C_7
REMARK    5  A    between atoms: C_6  and  C_13
REMARK                            x       y       z     vdW  Elec       q    Type
REMARK                         _______ _______ _______ _____ _____    ______ ____
ROOT
ATOM      1  C   UNL     1     -11.984  15.695  69.163  0.00  0.00    +0.064 C 
ENDROOT
BRANCH   1   2
ATOM      2  C   UNL     1     -10.582  16.454  69.451  0.00  0.00    +0.063 A 
ATOM      3  N   UNL     1      -9.554  15.572  69.568  0.00  0.00    -0.248 NA
ATOM      4  C   UNL     1      -8.378  15.718  68.961  0.00  0.00    +0.098 A 
ATOM      5  C   UNL     1      -8.115  16.779  68.108  0.00  0.00    +0.021 A 
ATOM      6  C   UNL     1      -9.131  17.682  67.924  0.00  0.00    +0.003 A 
ATOM      7  C   UNL     1     -10.356  17.404  68.459  0.00  0.00    +0.015 A 
ENDBRANCH   1   2
BRANCH   1   8
ATOM      8  C   UNL     1     -12.018  14.999  70.626  0.00  0.00    -0.017 A 
ATOM      9  C   UNL     1     -12.721  15.733  71.576  0.00  0.00    -0.004 A 
ATOM     10  C   UNL     1     -13.791  15.224  72.282  0.00  0.00    -0.000 A 
ATOM     11  C   UNL     1     -14.017  13.869  72.280  0.00  0.00    -0.000 A 
ATOM     12  C   UNL     1     -13.058  13.093  71.643  0.00  0.00    -0.000 A 
ATOM     13  C   UNL     1     -12.362  13.652  70.576  0.00  0.00    -0.004 A 
ENDBRANCH   1   8
BRANCH   1  14
ATOM     14  C   UNL     1     -11.266  14.416  68.426  0.00  0.00    +0.028 C 
BRANCH  14  15
ATOM     15  C   UNL     1     -11.758  14.322  67.040  0.00  0.00    +0.073 C 
BRANCH  15  17
ATOM     16  C   UNL     1      -9.819  13.861  66.164  0.00  0.00    +0.090 C 
ATOM     17  N   UNL     1     -10.641  14.511  66.173  0.00  0.00    -0.270 NA
ATOM     18  C   UNL     1     -10.775  15.585  65.227  0.00  0.00    +0.090 C 
ENDBRANCH  15  17
ENDBRANCH  14  15
ENDBRANCH   1  14
TORSDOF 5
ENDMDL
MODEL 6
REMARK VINA RESULT:      -5.6      1.808      5.206
REMARK  Name = 
REMARK  5 active torsions:
REMARK  status: ('A' for Active; 'I' for Inactive)
REMARK    1  A    between atoms: N_2  and  C_4
REMARK    2  A    between atoms: C_4  and  C_5
REMARK    3  A    between atoms: C_5  and  C_6
REMARK    4  A    between atoms: C_6  and  C_7
REMARK    5  A    between atoms: C_6  and  C_13
REMARK                            x       y       z     vdW  Elec       q    Type
REMARK                         _______ _______ _______ _____ _____    ______ ____
ROOT
ATOM      1  C   UNL     1      -9.831  16.216  67.979  0.00  0.00    +0.064 C 
ENDROOT
BRANCH   1   2
ATOM      2  C   UNL     1     -11.261  15.917  68.680  0.00  0.00    +0.063 A 
ATOM      3  N   UNL     1     -11.660  14.635  68.469  0.00  0.00    -0.248 NA
ATOM      4  C   UNL     1     -12.134  13.839  69.426  0.00  0.00    +0.098 A 
ATOM      5  C   UNL     1     -12.221  14.247  70.749  0.00  0.00    +0.021 A 
ATOM      6  C   UNL     1     -11.798  15.522  71.025  0.00  0.00    +0.003 A 
ATOM      7  C   UNL     1     -11.193  16.238  70.032  0.00  0.00    +0.015 A 
ENDBRANCH   1   2
BRANCH   1   8
ATOM      8  C   UNL     1      -9.942  17.816  68.214  0.00  0.00    -0.017 A 
ATOM      9  C   UNL     1      -8.726  18.419  68.519  0.00  0.00    -0.004 A 
ATOM     10  C   UNL     1      -8.192  19.454  67.780  0.00  0.00    -0.000 A 
ATOM     11  C   UNL     1      -8.989  20.124  66.883  0.00  0.00    -0.000 A 
ATOM     12  C   UNL     1     -10.331  19.767  66.876  0.00  0.00    -0.000 A 
ATOM     13  C   UNL     1     -10.666  18.460  67.216  0.00  0.00    -0.004 A 
ENDBRANCH   1   8
BRANCH   1  14
ATOM     14  C   UNL     1     -10.461  16.262  66.464  0.00  0.00    +0.028 C 
BRANCH  14  15
ATOM     15  C   UNL     1      -9.801  15.236  65.637  0.00  0.00    +0.073 C 
BRANCH  15  17
ATOM     16  C   UNL     1     -11.767  14.901  64.764  0.00  0.00    +0.090 C 
ATOM     17  N   UNL     1     -10.823  14.496  64.972  0.00  0.00    -0.270 NA
ATOM     18  C   UNL     1     -10.428  13.198  64.498  0.00  0.00    +0.090 C 
ENDBRANCH  15  17
ENDBRANCH  14  15
ENDBRANCH   1  14
TORSDOF 5
ENDMDL
MODEL 7
REMARK VINA RESULT:      -5.6      2.972      5.731
REMARK  Name = 
REMARK  5 active torsions:
REMARK  status: ('A' for Active; 'I' for Inactive)
REMARK    1  A    between atoms: N_2  and  C_4
REMARK    2  A    between atoms: C_4  and  C_5
REMARK    3  A    between atoms: C_5  and  C_6
REMARK    4  A    between atoms: C_6  and  C_7
REMARK    5  A    between atoms: C_6  and  C_13
REMARK                            x       y       z     vdW  Elec       q    Type
REMARK                         _______ _______ _______ _____ _____    ______ ____
ROOT
ATOM      1  C   UNL     1     -10.842  15.973  66.967  0.00  0.00    +0.064 C 
ENDROOT
BRANCH   1   2
ATOM      2  C   UNL     1      -9.873  17.271  66.910  0.00  0.00    +0.063 A 
ATOM      3  N   UNL     1     -10.226  18.110  65.902  0.00  0.00    -0.248 NA
ATOM      4  C   UNL     1     -10.347  19.429  66.042  0.00  0.00    +0.098 A 
ATOM      5  C   UNL     1     -10.162  20.060  67.263  0.00  0.00    +0.021 A 
ATOM      6  C   UNL     1      -9.839  19.256  68.326  0.00  0.00    +0.003 A 
ATOM      7  C   UNL     1      -9.868  17.902  68.151  0.00  0.00    +0.015 A 
ENDBRANCH   1   2
BRANCH   1   8
ATOM      8  C   UNL     1      -9.753  15.076  67.765  0.00  0.00    -0.017 A 
ATOM      9  C   UNL     1     -10.313  14.009  68.461  0.00  0.00    -0.004 A 
ATOM     10  C   UNL     1      -9.939  12.697  68.258  0.00  0.00    -0.000 A 
ATOM     11  C   UNL     1      -8.784  12.425  67.565  0.00  0.00    -0.000 A 
ATOM     12  C   UNL     1      -8.011  13.524  67.214  0.00  0.00    -0.000 A 
ATOM     13  C   UNL     1      -8.655  14.734  66.982  0.00  0.00    -0.004 A 
ENDBRANCH   1   8
BRANCH   1  14
ATOM     14  C   UNL     1     -10.391  15.437  65.482  0.00  0.00    +0.028 C 
BRANCH  14  15
ATOM     15  C   UNL     1     -11.574  14.901  64.785  0.00  0.00    +0.073 C 
BRANCH  15  17
ATOM     16  C   UNL     1     -12.310  12.946  65.397  0.00  0.00    +0.090 C 
ATOM     17  N   UNL     1     -11.546  13.482  64.921  0.00  0.00    -0.270 NA
ATOM     18  C   UNL     1     -10.456  12.824  64.251  0.00  0.00    +0.090 C 
ENDBRANCH  15  17
ENDBRANCH  14  15
ENDBRANCH   1  14
TORSDOF 5
ENDMDL
MODEL 8
REMARK VINA RESULT:      -5.5      3.372      5.796
REMARK  Name = 
REMARK  5 active torsions:
REMARK  status: ('A' for Active; 'I' for Inactive)
REMARK    1  A    between atoms: N_2  and  C_4
REMARK    2  A    between atoms: C_4  and  C_5
REMARK    3  A    between atoms: C_5  and  C_6
REMARK    4  A    between atoms: C_6  and  C_7
REMARK    5  A    between atoms: C_6  and  C_13
REMARK                            x       y       z     vdW  Elec       q    Type
REMARK                         _______ _______ _______ _____ _____    ______ ____
ROOT
ATOM      1  C   UNL     1     -12.775  10.957  70.216  0.00  0.00    +0.064 C 
ENDROOT
BRANCH   1   2
ATOM      2  C   UNL     1     -12.392  12.275  71.078  0.00  0.00    +0.063 A 
ATOM      3  N   UNL     1     -12.132  13.338  70.272  0.00  0.00    -0.248 NA
ATOM      4  C   UNL     1     -12.629  14.558  70.469  0.00  0.00    +0.098 A 
ATOM      5  C   UNL     1     -13.505  14.838  71.507  0.00  0.00    +0.021 A 
ATOM      6  C   UNL     1     -13.832  13.792  72.332  0.00  0.00    +0.003 A 
ATOM      7  C   UNL     1     -13.404  12.539  71.997  0.00  0.00    +0.015 A 
ENDBRANCH   1   2
BRANCH   1   8
ATOM      8  C   UNL     1     -12.546   9.954  71.468  0.00  0.00    -0.017 A 
ATOM      9  C   UNL     1     -13.537   8.987  71.595  0.00  0.00    -0.004 A 
ATOM     10  C   UNL     1     -13.274   7.633  71.598  0.00  0.00    -0.000 A 
ATOM     11  C   UNL     1     -11.982   7.197  71.770  0.00  0.00    -0.000 A 
ATOM     12  C   UNL     1     -11.040   8.180  72.046  0.00  0.00    -0.000 A 
ATOM     13  C   UNL     1     -11.248   9.454  71.529  0.00  0.00    -0.004 A 
ENDBRANCH   1   8
BRANCH   1  14
ATOM     14  C   UNL     1     -11.256  10.774  69.620  0.00  0.00    +0.028 C 
BRANCH  14  15
ATOM     15  C   UNL     1     -11.338  10.474  68.180  0.00  0.00    +0.073 C 
BRANCH  15  17
ATOM     16  C   UNL     1     -11.515  12.137  66.785  0.00  0.00    +0.090 C 
ATOM     17  N   UNL     1     -10.905  11.636  67.474  0.00  0.00    -0.270 NA
ATOM     18  C   UNL     1      -9.618  12.145  67.864  0.00  0.00    +0.090 C 
ENDBRANCH  15  17
ENDBRANCH  14  15
ENDBRANCH   1  14
TORSDOF 5
ENDMDL
MODEL 9
REMARK VINA RESULT:      -5.3      2.218      5.818
REMARK  Name = 
REMARK  5 active torsions:
REMARK  status: ('A' for Active; 'I' for Inactive)
REMARK    1  A    between atoms: N_2  and  C_4
REMARK    2  A    between atoms: C_4  and  C_5
REMARK    3  A    between atoms: C_5  and  C_6
REMARK    4  A    between atoms: C_6  and  C_7
REMARK    5  A    between atoms: C_6  and  C_13
REMARK                            x       y       z     vdW  Elec       q    Type
REMARK                         _______ _______ _______ _____ _____    ______ ____
ROOT
ATOM      1  C   UNL     1     -10.592  14.032  68.597  0.00  0.00    +0.064 C 
ENDROOT
BRANCH   1   2
ATOM      2  C   UNL     1     -11.843  14.588  69.464  0.00  0.00    +0.063 A 
ATOM      3  N   UNL     1     -12.337  13.633  70.294  0.00  0.00    -0.248 NA
ATOM      4  C   UNL     1     -12.624  13.841  71.578  0.00  0.00    +0.098 A 
ATOM      5  C   UNL     1     -12.396  15.062  72.195  0.00  0.00    +0.021 A 
ATOM      6  C   UNL     1     -11.863  16.054  71.412  0.00  0.00    +0.003 A 
ATOM      7  C   UNL     1     -11.461  15.740  70.146  0.00  0.00    +0.015 A 
ENDBRANCH   1   2
BRANCH   1   8
ATOM      8  C   UNL     1     -11.156  14.646  67.208  0.00  0.00    -0.017 A 
ATOM      9  C   UNL     1     -10.181  14.794  66.228  0.00  0.00    -0.004 A 
ATOM     10  C   UNL     1     -10.270  14.211  64.982  0.00  0.00    -0.000 A 
ATOM     11  C   UNL     1     -11.473  13.699  64.561  0.00  0.00    -0.000 A 
ATOM     12  C   UNL     1     -12.556  13.918  65.403  0.00  0.00    -0.000 A 
ATOM     13  C   UNL     1     -12.317  14.016  66.770  0.00  0.00    -0.004 A 
ENDBRANCH   1   8
BRANCH   1  14
ATOM     14  C   UNL     1     -11.268  12.552  68.371  0.00  0.00    +0.028 C 
BRANCH  14  15
ATOM     15  C   UNL     1     -10.220  11.523  68.489  0.00  0.00    +0.073 C 
BRANCH  15  17
ATOM     16  C   UNL     1     -10.558  10.684  66.508  0.00  0.00    +0.090 C 
ATOM     17  N   UNL     1      -9.868  11.116  67.167  0.00  0.00    -0.270 NA
ATOM     18  C   UNL     1      -8.530  11.451  66.760  0.00  0.00    +0.090 C 
ENDBRANCH  15  17
ENDBRANCH  14  15
ENDBRANCH   1  14
TORSDOF 5
ENDMDL
