MODEL 1
REMARK VINA RESULT:      -7.6      0.000      0.000
REMARK  Name = 
REMARK  4 active torsions:
REMARK  status: ('A' for Active; 'I' for Inactive)
REMARK    1  A    between atoms: S_2  and  C_5
REMARK    2  A    between atoms: C_8  and  C_9
REMARK    3  A    between atoms: N_11  and  C_12
REMARK    4  A    between atoms: C_17  and  C_18
REMARK                            x       y       z     vdW  Elec       q    Type
REMARK                         _______ _______ _______ _____ _____    ______ ____
ROOT
ATOM      1  C   UNL     1      -8.038  18.231  68.154  0.00  0.00    +0.270 C 
ATOM      2  N   UNL     1      -7.945  16.930  67.566  0.00  0.00    -0.175 NA
ATOM      3  O   UNL     1      -9.149  18.629  68.614  0.00  0.00    -0.268 OA
ENDROOT
BRANCH   1   8
ATOM      4  C   UNL     1      -4.759  20.040  69.968  0.00  0.00    +0.107 A 
ATOM      5  C   UNL     1      -5.467  20.703  68.994  0.00  0.00    +0.030 A 
ATOM      6  C   UNL     1      -6.489  20.092  68.279  0.00  0.00    +0.063 A 
ATOM      7 CL   UNL     1      -7.137  20.812  66.821  0.00  0.00    -0.082 Cl
ATOM      8  C   UNL     1      -6.794  18.793  68.668  0.00  0.00    +0.066 A 
ATOM      9  C   UNL     1      -5.823  17.998  69.263  0.00  0.00    +0.007 A 
ATOM     10  C   UNL     1      -4.779  18.653  69.896  0.00  0.00    +0.019 A 
BRANCH   4  12
ATOM     11  C   UNL     1      -2.231  21.199  70.719  0.00  0.00    +0.182 C 
ATOM     12  S   UNL     1      -3.903  20.878  71.255  0.00  0.00    +0.010 S 
ATOM     13  O   UNL     1      -4.562  22.201  71.447  0.00  0.00    -0.169 OA
ATOM     14  O   UNL     1      -3.824  20.063  72.500  0.00  0.00    -0.169 OA
ENDBRANCH   4  12
ENDBRANCH   1   8
BRANCH   2  15
ATOM     15  C   UNL     1      -9.121  16.126  67.441  0.00  0.00    +0.074 A 
ATOM     16  C   UNL     1      -9.319  15.344  66.329  0.00  0.00    +0.019 A 
ATOM     17  C   UNL     1     -10.253  14.329  66.387  0.00  0.00    +0.030 A 
ATOM     18  C   UNL     1     -10.816  14.013  67.617  0.00  0.00    +0.059 A 
ATOM     19 CL   UNL     1     -11.682  12.512  67.780  0.00  0.00    -0.082 Cl
ATOM     20  C   UNL     1     -10.848  14.976  68.593  0.00  0.00    +0.013 A 
ATOM     21  C   UNL     1     -10.027  16.088  68.478  0.00  0.00    +0.017 A 
BRANCH  17  22
ATOM     22  C   UNL     1     -10.737  13.722  65.149  0.00  0.00    +0.082 A 
ATOM     23  N   UNL     1     -10.157  12.612  64.665  0.00  0.00    -0.244 NA
ATOM     24  C   UNL     1     -10.819  11.749  63.858  0.00  0.00    +0.099 A 
ATOM     25  C   UNL     1     -12.108  12.089  63.502  0.00  0.00    +0.021 A 
ATOM     26  C   UNL     1     -12.437  13.439  63.522  0.00  0.00    +0.003 A 
ATOM     27  C   UNL     1     -11.940  14.150  64.607  0.00  0.00    +0.019 A 
ENDBRANCH  17  22
ENDBRANCH   2  15
TORSDOF 4
ENDMDL
MODEL 2
REMARK VINA RESULT:      -7.5      2.417      3.696
REMARK  Name = 
REMARK  4 active torsions:
REMARK  status: ('A' for Active; 'I' for Inactive)
REMARK    1  A    between atoms: S_2  and  C_5
REMARK    2  A    between atoms: C_8  and  C_9
REMARK    3  A    between atoms: N_11  and  C_12
REMARK    4  A    between atoms: C_17  and  C_18
REMARK                            x       y       z     vdW  Elec       q    Type
REMARK                         _______ _______ _______ _____ _____    ______ ____
ROOT
ATOM      1  C   UNL     1      -7.106  17.160  68.079  0.00  0.00    +0.270 C 
ATOM      2  N   UNL     1      -7.300  16.089  69.008  0.00  0.00    -0.175 NA
ATOM      3  O   UNL     1      -7.920  17.307  67.120  0.00  0.00    -0.268 OA
ENDROOT
BRANCH   1   8
ATOM      4  C   UNL     1      -4.924  20.196  69.906  0.00  0.00    +0.107 A 
ATOM      5  C   UNL     1      -6.298  20.225  69.915  0.00  0.00    +0.030 A 
ATOM      6  C   UNL     1      -7.062  19.300  69.216  0.00  0.00    +0.063 A 
ATOM      7 CL   UNL     1      -8.773  19.551  68.945  0.00  0.00    -0.082 Cl
ATOM      8  C   UNL     1      -6.343  18.303  68.569  0.00  0.00    +0.066 A 
ATOM      9  C   UNL     1      -5.036  18.537  68.163  0.00  0.00    +0.007 A 
ATOM     10  C   UNL     1      -4.338  19.525  68.839  0.00  0.00    +0.019 A 
BRANCH   4  12
ATOM     11  C   UNL     1      -2.302  21.203  70.546  0.00  0.00    +0.182 C 
ATOM     12  S   UNL     1      -3.949  20.925  71.175  0.00  0.00    +0.010 S 
ATOM     13  O   UNL     1      -4.534  22.262  71.478  0.00  0.00    -0.169 OA
ATOM     14  O   UNL     1      -3.829  20.040  72.368  0.00  0.00    -0.169 OA
ENDBRANCH   4  12
ENDBRANCH   1   8
BRANCH   2  15
ATOM     15  C   UNL     1      -8.366  15.157  68.799  0.00  0.00    +0.074 A 
ATOM     16  C   UNL     1      -9.559  15.299  69.465  0.00  0.00    +0.019 A 
ATOM     17  C   UNL     1     -10.667  14.624  68.992  0.00  0.00    +0.030 A 
ATOM     18  C   UNL     1     -10.584  13.987  67.761  0.00  0.00    +0.059 A 
ATOM     19 CL   UNL     1     -12.055  13.476  66.982  0.00  0.00    -0.082 Cl
ATOM     20  C   UNL     1      -9.351  13.602  67.302  0.00  0.00    +0.013 A 
ATOM     21  C   UNL     1      -8.211  14.152  67.870  0.00  0.00    +0.017 A 
BRANCH  17  22
ATOM     22  C   UNL     1     -11.837  14.466  69.854  0.00  0.00    +0.082 A 
ATOM     23  N   UNL     1     -12.168  13.257  70.336  0.00  0.00    -0.244 NA
ATOM     24  C   UNL     1     -12.885  13.110  71.475  0.00  0.00    +0.099 A 
ATOM     25  C   UNL     1     -13.316  14.264  72.096  0.00  0.00    +0.021 A 
ATOM     26  C   UNL     1     -13.468  15.394  71.303  0.00  0.00    +0.003 A 
ATOM     27  C   UNL     1     -12.461  15.593  70.366  0.00  0.00    +0.019 A 
ENDBRANCH  17  22
ENDBRANCH   2  15
TORSDOF 4
ENDMDL
MODEL 3
REMARK VINA RESULT:      -7.4      5.266      7.400
REMARK  Name = 
REMARK  4 active torsions:
REMARK  status: ('A' for Active; 'I' for Inactive)
REMARK    1  A    between atoms: S_2  and  C_5
REMARK    2  A    between atoms: C_8  and  C_9
REMARK    3  A    between atoms: N_11  and  C_12
REMARK    4  A    between atoms: C_17  and  C_18
REMARK                            x       y       z     vdW  Elec       q    Type
REMARK                         _______ _______ _______ _____ _____    ______ ____
ROOT
ATOM      1  C   UNL     1     -11.125  12.793  67.550  0.00  0.00    +0.270 C 
ATOM      2  N   UNL     1     -10.575  12.381  68.805  0.00  0.00    -0.175 NA
ATOM      3  O   UNL     1     -12.063  12.119  67.030  0.00  0.00    -0.268 OA
ENDROOT
BRANCH   1   8
ATOM      4  C   UNL     1     -10.248  16.794  66.813  0.00  0.00    +0.107 A 
ATOM      5  C   UNL     1     -10.893  16.425  67.969  0.00  0.00    +0.030 A 
ATOM      6  C   UNL     1     -11.312  15.121  68.198  0.00  0.00    +0.063 A 
ATOM      7 CL   UNL     1     -12.429  14.737  69.491  0.00  0.00    -0.082 Cl
ATOM      8  C   UNL     1     -10.968  14.204  67.213  0.00  0.00    +0.066 A 
ATOM      9  C   UNL     1     -10.775  14.626  65.905  0.00  0.00    +0.007 A 
ATOM     10  C   UNL     1     -10.436  15.957  65.719  0.00  0.00    +0.019 A 
BRANCH   4  12
ATOM     11  C   UNL     1     -10.189  19.592  66.134  0.00  0.00    +0.182 C 
ATOM     12  S   UNL     1      -9.215  18.213  66.712  0.00  0.00    +0.010 S 
ATOM     13  O   UNL     1      -8.768  18.543  68.096  0.00  0.00    -0.169 OA
ATOM     14  O   UNL     1      -8.093  18.024  65.750  0.00  0.00    -0.169 OA
ENDBRANCH   4  12
ENDBRANCH   1   8
BRANCH   2  15
ATOM     15  C   UNL     1     -11.041  11.176  69.419  0.00  0.00    +0.074 A 
ATOM     16  C   UNL     1     -10.329  10.008  69.297  0.00  0.00    +0.019 A 
ATOM     17  C   UNL     1     -10.595   8.973  70.172  0.00  0.00    +0.030 A 
ATOM     18  C   UNL     1     -11.427   9.215  71.256  0.00  0.00    +0.059 A 
ATOM     19 CL   UNL     1     -11.461   8.063  72.560  0.00  0.00    -0.082 Cl
ATOM     20  C   UNL     1     -12.338  10.238  71.171  0.00  0.00    +0.013 A 
ATOM     21  C   UNL     1     -12.179  11.210  70.195  0.00  0.00    +0.017 A 
BRANCH  17  22
ATOM     22  C   UNL     1     -10.126   7.625  69.858  0.00  0.00    +0.082 A 
ATOM     23  N   UNL     1      -8.945   7.190  70.327  0.00  0.00    -0.244 NA
ATOM     24  C   UNL     1      -8.683   5.873  70.502  0.00  0.00    +0.099 A 
ATOM     25  C   UNL     1      -9.666   4.984  70.120  0.00  0.00    +0.021 A 
ATOM     26  C   UNL     1     -10.562   5.407  69.146  0.00  0.00    +0.003 A 
ATOM     27  C   UNL     1     -11.001   6.718  69.281  0.00  0.00    +0.019 A 
ENDBRANCH  17  22
ENDBRANCH   2  15
TORSDOF 4
ENDMDL
MODEL 4
REMARK VINA RESULT:      -7.3      4.178      9.112
REMARK  Name = 
REMARK  4 active torsions:
REMARK  status: ('A' for Active; 'I' for Inactive)
REMARK    1  A    between atoms: S_2  and  C_5
REMARK    2  A    between atoms: C_8  and  C_9
REMARK    3  A    between atoms: N_11  and  C_12
REMARK    4  A    between atoms: C_17  and  C_18
REMARK                            x       y       z     vdW  Elec       q    Type
REMARK                         _______ _______ _______ _____ _____    ______ ____
ROOT
ATOM      1  C   UNL     1     -10.508  16.266  67.515  0.00  0.00    +0.270 C 
ATOM      2  N   UNL     1     -10.684  17.354  68.427  0.00  0.00    -0.175 NA
ATOM      3  O   UNL     1      -9.548  16.295  66.690  0.00  0.00    -0.268 OA
ENDROOT
BRANCH   1   8
ATOM      4  C   UNL     1     -11.686  12.435  68.636  0.00  0.00    +0.107 A 
ATOM      5  C   UNL     1     -11.700  12.808  67.312  0.00  0.00    +0.030 A 
ATOM      6  C   UNL     1     -11.432  14.109  66.908  0.00  0.00    +0.063 A 
ATOM      7 CL   UNL     1     -11.794  14.650  65.283  0.00  0.00    -0.082 Cl
ATOM      8  C   UNL     1     -11.078  14.987  67.926  0.00  0.00    +0.066 A 
ATOM      9  C   UNL     1     -11.519  14.765  69.223  0.00  0.00    +0.007 A 
ATOM     10  C   UNL     1     -11.851  13.463  69.558  0.00  0.00    +0.019 A 
BRANCH   4  12
ATOM     11  C   UNL     1     -12.656  10.372  70.396  0.00  0.00    +0.182 C 
ATOM     12  S   UNL     1     -11.441  10.773  69.152  0.00  0.00    +0.010 S 
ATOM     13  O   UNL     1     -11.710   9.894  67.979  0.00  0.00    -0.169 OA
ATOM     14  O   UNL     1     -10.095  10.566  69.759  0.00  0.00    -0.169 OA
ENDBRANCH   4  12
ENDBRANCH   1   8
BRANCH   2  15
ATOM     15  C   UNL     1      -9.820  18.491  68.346  0.00  0.00    +0.074 A 
ATOM     16  C   UNL     1      -8.563  18.455  68.898  0.00  0.00    +0.019 A 
ATOM     17  C   UNL     1      -7.637  19.402  68.504  0.00  0.00    +0.030 A 
ATOM     18  C   UNL     1      -7.945  20.229  67.433  0.00  0.00    +0.059 A 
ATOM     19 CL   UNL     1      -6.665  21.142  66.685  0.00  0.00    -0.082 Cl
ATOM     20  C   UNL     1      -9.264  20.454  67.133  0.00  0.00    +0.013 A 
ATOM     21  C   UNL     1     -10.233  19.604  67.647  0.00  0.00    +0.017 A 
BRANCH  17  22
ATOM     22  C   UNL     1      -6.435  19.614  69.309  0.00  0.00    +0.082 A 
ATOM     23  N   UNL     1      -6.478  20.395  70.401  0.00  0.00    -0.244 NA
ATOM     24  C   UNL     1      -5.603  20.247  71.424  0.00  0.00    +0.099 A 
ATOM     25  C   UNL     1      -4.619  19.292  71.271  0.00  0.00    +0.021 A 
ATOM     26  C   UNL     1      -4.259  18.951  69.974  0.00  0.00    +0.003 A 
ATOM     27  C   UNL     1      -5.319  18.823  69.084  0.00  0.00    +0.019 A 
ENDBRANCH  17  22
ENDBRANCH   2  15
TORSDOF 4
ENDMDL
MODEL 5
REMARK VINA RESULT:      -7.3      2.147      2.675
REMARK  Name = 
REMARK  4 active torsions:
REMARK  status: ('A' for Active; 'I' for Inactive)
REMARK    1  A    between atoms: S_2  and  C_5
REMARK    2  A    between atoms: C_8  and  C_9
REMARK    3  A    between atoms: N_11  and  C_12
REMARK    4  A    between atoms: C_17  and  C_18
REMARK                            x       y       z     vdW  Elec       q    Type
REMARK                         _______ _______ _______ _____ _____    ______ ____
ROOT
ATOM      1  C   UNL     1      -8.159  15.714  69.133  0.00  0.00    +0.270 C 
ATOM      2  N   UNL     1      -9.527  16.007  68.836  0.00  0.00    -0.175 NA
ATOM      3  O   UNL     1      -7.774  14.508  69.168  0.00  0.00    -0.268 OA
ENDROOT
BRANCH   1   8
ATOM      4  C   UNL     1      -5.776  19.057  68.449  0.00  0.00    +0.107 A 
ATOM      5  C   UNL     1      -6.542  18.529  67.436  0.00  0.00    +0.030 A 
ATOM      6  C   UNL     1      -7.255  17.347  67.587  0.00  0.00    +0.063 A 
ATOM      7 CL   UNL     1      -7.929  16.507  66.207  0.00  0.00    -0.082 Cl
ATOM      8  C   UNL     1      -7.199  16.777  68.853  0.00  0.00    +0.066 A 
ATOM      9  C   UNL     1      -6.105  17.010  69.675  0.00  0.00    +0.007 A 
ATOM     10  C   UNL     1      -5.376  18.163  69.435  0.00  0.00    +0.019 A 
BRANCH   4  12
ATOM     11  C   UNL     1      -3.682  20.963  67.923  0.00  0.00    +0.182 C 
ATOM     12  S   UNL     1      -5.349  20.760  68.528  0.00  0.00    +0.010 S 
ATOM     13  O   UNL     1      -6.247  21.493  67.590  0.00  0.00    -0.169 OA
ATOM     14  O   UNL     1      -5.385  21.284  69.923  0.00  0.00    -0.169 OA
ENDBRANCH   4  12
ENDBRANCH   1   8
BRANCH   2  15
ATOM     15  C   UNL     1     -10.456  14.934  68.654  0.00  0.00    +0.074 A 
ATOM     16  C   UNL     1     -10.406  14.150  67.527  0.00  0.00    +0.019 A 
ATOM     17  C   UNL     1     -11.054  12.930  67.538  0.00  0.00    +0.030 A 
ATOM     18  C   UNL     1     -11.565  12.459  68.740  0.00  0.00    +0.059 A 
ATOM     19 CL   UNL     1     -12.028  10.784  68.853  0.00  0.00    -0.082 Cl
ATOM     20  C   UNL     1     -11.877  13.363  69.723  0.00  0.00    +0.013 A 
ATOM     21  C   UNL     1     -11.361  14.648  69.652  0.00  0.00    +0.017 A 
BRANCH  17  22
ATOM     22  C   UNL     1     -11.321  12.244  66.275  0.00  0.00    +0.082 A 
ATOM     23  N   UNL     1     -12.410  12.551  65.552  0.00  0.00    -0.244 NA
ATOM     24  C   UNL     1     -12.464  12.347  64.214  0.00  0.00    +0.099 A 
ATOM     25  C   UNL     1     -11.368  11.750  63.628  0.00  0.00    +0.021 A 
ATOM     26  C   UNL     1     -10.571  10.949  64.437  0.00  0.00    +0.003 A 
ATOM     27  C   UNL     1     -10.333  11.453  65.710  0.00  0.00    +0.019 A 
ENDBRANCH  17  22
ENDBRANCH   2  15
TORSDOF 4
ENDMDL
MODEL 6
REMARK VINA RESULT:      -7.3      5.062      7.724
REMARK  Name = 
REMARK  4 active torsions:
REMARK  status: ('A' for Active; 'I' for Inactive)
REMARK    1  A    between atoms: S_2  and  C_5
REMARK    2  A    between atoms: C_8  and  C_9
REMARK    3  A    between atoms: N_11  and  C_12
REMARK    4  A    between atoms: C_17  and  C_18
REMARK                            x       y       z     vdW  Elec       q    Type
REMARK                         _______ _______ _______ _____ _____    ______ ____
ROOT
ATOM      1  C   UNL     1     -10.631  12.471  66.659  0.00  0.00    +0.270 C 
ATOM      2  N   UNL     1      -9.449  11.965  67.287  0.00  0.00    -0.175 NA
ATOM      3  O   UNL     1     -11.686  11.772  66.663  0.00  0.00    -0.268 OA
ENDROOT
BRANCH   1   8
ATOM      4  C   UNL     1     -10.431  16.625  66.485  0.00  0.00    +0.107 A 
ATOM      5  C   UNL     1     -10.881  15.997  67.622  0.00  0.00    +0.030 A 
ATOM      6  C   UNL     1     -11.078  14.624  67.680  0.00  0.00    +0.063 A 
ATOM      7 CL   UNL     1     -11.974  13.887  68.992  0.00  0.00    -0.082 Cl
ATOM      8  C   UNL     1     -10.719  13.923  66.536  0.00  0.00    +0.066 A 
ATOM      9  C   UNL     1     -10.739  14.551  65.298  0.00  0.00    +0.007 A 
ATOM     10  C   UNL     1     -10.619  15.932  65.295  0.00  0.00    +0.019 A 
BRANCH   4  12
ATOM     11  C   UNL     1      -9.280  18.622  68.211  0.00  0.00    +0.182 C 
ATOM     12  S   UNL     1      -9.633  18.191  66.516  0.00  0.00    +0.010 S 
ATOM     13  O   UNL     1      -8.323  18.042  65.821  0.00  0.00    -0.169 OA
ATOM     14  O   UNL     1     -10.492  19.270  65.950  0.00  0.00    -0.169 OA
ENDBRANCH   4  12
ENDBRANCH   1   8
BRANCH   2  15
ATOM     15  C   UNL     1      -9.455  10.647  67.844  0.00  0.00    +0.074 A 
ATOM     16  C   UNL     1      -9.873  10.436  69.135  0.00  0.00    +0.019 A 
ATOM     17  C   UNL     1     -10.207   9.153  69.524  0.00  0.00    +0.030 A 
ATOM     18  C   UNL     1     -10.294   8.165  68.553  0.00  0.00    +0.059 A 
ATOM     19 CL   UNL     1     -11.080   6.664  68.954  0.00  0.00    -0.082 Cl
ATOM     20  C   UNL     1      -9.585   8.322  67.389  0.00  0.00    +0.013 A 
ATOM     21  C   UNL     1      -9.102   9.577  67.051  0.00  0.00    +0.017 A 
BRANCH  17  22
ATOM     22  C   UNL     1     -10.310   8.835  70.947  0.00  0.00    +0.082 A 
ATOM     23  N   UNL     1     -11.512   8.752  71.540  0.00  0.00    -0.244 NA
ATOM     24  C   UNL     1     -11.713   8.010  72.655  0.00  0.00    +0.099 A 
ATOM     25  C   UNL     1     -10.610   7.384  73.197  0.00  0.00    +0.021 A 
ATOM     26  C   UNL     1      -9.366   7.944  72.931  0.00  0.00    +0.003 A 
ATOM     27  C   UNL     1      -9.187   8.384  71.625  0.00  0.00    +0.019 A 
ENDBRANCH  17  22
ENDBRANCH   2  15
TORSDOF 4
ENDMDL
MODEL 7
REMARK VINA RESULT:      -7.1      5.263      7.429
REMARK  Name = 
REMARK  4 active torsions:
REMARK  status: ('A' for Active; 'I' for Inactive)
REMARK    1  A    between atoms: S_2  and  C_5
REMARK    2  A    between atoms: C_8  and  C_9
REMARK    3  A    between atoms: N_11  and  C_12
REMARK    4  A    between atoms: C_17  and  C_18
REMARK                            x       y       z     vdW  Elec       q    Type
REMARK                         _______ _______ _______ _____ _____    ______ ____
ROOT
ATOM      1  C   UNL     1     -10.834  12.747  67.440  0.00  0.00    +0.270 C 
ATOM      2  N   UNL     1     -10.151  12.096  68.515  0.00  0.00    -0.175 NA
ATOM      3  O   UNL     1     -12.017  12.397  67.151  0.00  0.00    -0.268 OA
ENDROOT
BRANCH   1   8
ATOM      4  C   UNL     1      -9.969  16.706  66.496  0.00  0.00    +0.107 A 
ATOM      5  C   UNL     1     -10.258  15.802  65.501  0.00  0.00    +0.030 A 
ATOM      6  C   UNL     1     -10.432  14.449  65.761  0.00  0.00    +0.063 A 
ATOM      7 CL   UNL     1     -10.447  13.268  64.469  0.00  0.00    -0.082 Cl
ATOM      8  C   UNL     1     -10.368  14.087  67.101  0.00  0.00    +0.066 A 
ATOM      9  C   UNL     1      -9.630  14.852  67.995  0.00  0.00    +0.007 A 
ATOM     10  C   UNL     1      -9.413  16.177  67.655  0.00  0.00    +0.019 A 
BRANCH   4  12
ATOM     11  C   UNL     1      -8.757  19.310  66.280  0.00  0.00    +0.182 C 
ATOM     12  S   UNL     1     -10.306  18.425  66.343  0.00  0.00    +0.010 S 
ATOM     13  O   UNL     1     -10.984  18.636  65.033  0.00  0.00    -0.169 OA
ATOM     14  O   UNL     1     -11.074  18.952  67.507  0.00  0.00    -0.169 OA
ENDBRANCH   4  12
ENDBRANCH   1   8
BRANCH   2  15
ATOM     15  C   UNL     1     -10.785  11.012  69.201  0.00  0.00    +0.074 A 
ATOM     16  C   UNL     1     -10.196   9.772  69.244  0.00  0.00    +0.019 A 
ATOM     17  C   UNL     1     -10.630   8.862  70.188  0.00  0.00    +0.030 A 
ATOM     18  C   UNL     1     -11.502   9.295  71.178  0.00  0.00    +0.059 A 
ATOM     19 CL   UNL     1     -11.747   8.289  72.577  0.00  0.00    -0.082 Cl
ATOM     20  C   UNL     1     -12.289  10.391  70.928  0.00  0.00    +0.013 A 
ATOM     21  C   UNL     1     -11.961  11.238  69.881  0.00  0.00    +0.017 A 
BRANCH  17  22
ATOM     22  C   UNL     1     -10.289   7.449  70.038  0.00  0.00    +0.082 A 
ATOM     23  N   UNL     1     -11.171   6.591  69.499  0.00  0.00    -0.244 NA
ATOM     24  C   UNL     1     -10.779   5.445  68.893  0.00  0.00    +0.099 A 
ATOM     25  C   UNL     1      -9.429   5.163  68.903  0.00  0.00    +0.021 A 
ATOM     26  C   UNL     1      -8.670   5.722  69.923  0.00  0.00    +0.003 A 
ATOM     27  C   UNL     1      -8.978   7.042  70.229  0.00  0.00    +0.019 A 
ENDBRANCH  17  22
ENDBRANCH   2  15
TORSDOF 4
ENDMDL
MODEL 8
REMARK VINA RESULT:      -7.0      4.214      9.168
REMARK  Name = 
REMARK  4 active torsions:
REMARK  status: ('A' for Active; 'I' for Inactive)
REMARK    1  A    between atoms: S_2  and  C_5
REMARK    2  A    between atoms: C_8  and  C_9
REMARK    3  A    between atoms: N_11  and  C_12
REMARK    4  A    between atoms: C_17  and  C_18
REMARK                            x       y       z     vdW  Elec       q    Type
REMARK                         _______ _______ _______ _____ _____    ______ ____
ROOT
ATOM      1  C   UNL     1     -10.120  15.885  66.631  0.00  0.00    +0.270 C 
ATOM      2  N   UNL     1     -10.269  16.632  67.842  0.00  0.00    -0.175 NA
ATOM      3  O   UNL     1      -9.348  16.315  65.725  0.00  0.00    -0.268 OA
ENDROOT
BRANCH   1   8
ATOM      4  C   UNL     1     -10.566  11.747  66.623  0.00  0.00    +0.107 A 
ATOM      5  C   UNL     1     -11.082  12.504  65.597  0.00  0.00    +0.030 A 
ATOM      6  C   UNL     1     -11.062  13.892  65.622  0.00  0.00    +0.063 A 
ATOM      7 CL   UNL     1     -12.022  14.836  64.502  0.00  0.00    -0.082 Cl
ATOM      8  C   UNL     1     -10.420  14.459  66.716  0.00  0.00    +0.066 A 
ATOM      9  C   UNL     1     -10.347  13.767  67.917  0.00  0.00    +0.007 A 
ATOM     10  C   UNL     1     -10.451  12.387  67.851  0.00  0.00    +0.019 A 
BRANCH   4  12
ATOM     11  C   UNL     1      -8.359   9.929  66.971  0.00  0.00    +0.182 C 
ATOM     12  S   UNL     1     -10.044  10.082  66.405  0.00  0.00    +0.010 S 
ATOM     13  O   UNL     1     -10.884   9.229  67.293  0.00  0.00    -0.169 OA
ATOM     14  O   UNL     1     -10.074   9.667  64.973  0.00  0.00    -0.169 OA
ENDBRANCH   4  12
ENDBRANCH   1   8
BRANCH   2  15
ATOM     15  C   UNL     1      -9.601  17.889  67.983  0.00  0.00    +0.074 A 
ATOM     16  C   UNL     1      -8.373  17.964  68.593  0.00  0.00    +0.019 A 
ATOM     17  C   UNL     1      -7.603  19.095  68.401  0.00  0.00    +0.030 A 
ATOM     18  C   UNL     1      -8.010  20.023  67.451  0.00  0.00    +0.059 A 
ATOM     19 CL   UNL     1      -6.875  21.233  66.924  0.00  0.00    -0.082 Cl
ATOM     20  C   UNL     1      -9.339  20.082  67.116  0.00  0.00    +0.013 A 
ATOM     21  C   UNL     1     -10.169  19.020  67.439  0.00  0.00    +0.017 A 
BRANCH  17  22
ATOM     22  C   UNL     1      -6.478  19.362  69.295  0.00  0.00    +0.082 A 
ATOM     23  N   UNL     1      -6.594  20.268  70.280  0.00  0.00    -0.244 NA
ATOM     24  C   UNL     1      -5.830  20.214  71.397  0.00  0.00    +0.099 A 
ATOM     25  C   UNL     1      -4.878  19.218  71.456  0.00  0.00    +0.021 A 
ATOM     26  C   UNL     1      -4.408  18.715  70.249  0.00  0.00    +0.003 A 
ATOM     27  C   UNL     1      -5.380  18.516  69.277  0.00  0.00    +0.019 A 
ENDBRANCH  17  22
ENDBRANCH   2  15
TORSDOF 4
ENDMDL
MODEL 9
REMARK VINA RESULT:      -7.0      4.196      9.049
REMARK  Name = 
REMARK  4 active torsions:
REMARK  status: ('A' for Active; 'I' for Inactive)
REMARK    1  A    between atoms: S_2  and  C_5
REMARK    2  A    between atoms: C_8  and  C_9
REMARK    3  A    between atoms: N_11  and  C_12
REMARK    4  A    between atoms: C_17  and  C_18
REMARK                            x       y       z     vdW  Elec       q    Type
REMARK                         _______ _______ _______ _____ _____    ______ ____
ROOT
ATOM      1  C   UNL     1     -10.547  16.011  67.320  0.00  0.00    +0.270 C 
ATOM      2  N   UNL     1     -10.578  17.006  68.348  0.00  0.00    -0.175 NA
ATOM      3  O   UNL     1      -9.747  16.146  66.348  0.00  0.00    -0.268 OA
ENDROOT
BRANCH   1   8
ATOM      4  C   UNL     1     -11.438  12.065  68.295  0.00  0.00    +0.107 A 
ATOM      5  C   UNL     1     -11.603  12.517  67.007  0.00  0.00    +0.030 A 
ATOM      6  C   UNL     1     -11.435  13.853  66.666  0.00  0.00    +0.063 A 
ATOM      7 CL   UNL     1     -11.985  14.475  65.125  0.00  0.00    -0.082 Cl
ATOM      8  C   UNL     1     -11.016  14.683  67.699  0.00  0.00    +0.066 A 
ATOM      9  C   UNL     1     -11.312  14.359  69.016  0.00  0.00    +0.007 A 
ATOM     10  C   UNL     1     -11.551  13.024  69.295  0.00  0.00    +0.019 A 
BRANCH   4  12
ATOM     11  C   UNL     1      -9.396  10.291  69.285  0.00  0.00    +0.182 C 
ATOM     12  S   UNL     1     -11.069  10.388  68.673  0.00  0.00    +0.010 S 
ATOM     13  O   UNL     1     -11.968   9.970  69.786  0.00  0.00    -0.169 OA
ATOM     14  O   UNL     1     -11.157   9.510  67.471  0.00  0.00    -0.169 OA
ENDBRANCH   4  12
ENDBRANCH   1   8
BRANCH   2  15
ATOM     15  C   UNL     1      -9.759  18.173  68.227  0.00  0.00    +0.074 A 
ATOM     16  C   UNL     1      -8.450  18.155  68.642  0.00  0.00    +0.019 A 
ATOM     17  C   UNL     1      -7.598  19.146  68.197  0.00  0.00    +0.030 A 
ATOM     18  C   UNL     1      -8.040  20.006  67.201  0.00  0.00    +0.059 A 
ATOM     19 CL   UNL     1      -6.873  20.990  66.364  0.00  0.00    -0.082 Cl
ATOM     20  C   UNL     1      -9.390  20.201  67.051  0.00  0.00    +0.013 A 
ATOM     21  C   UNL     1     -10.274  19.300  67.625  0.00  0.00    +0.017 A 
BRANCH  17  22
ATOM     22  C   UNL     1      -6.324  19.363  68.880  0.00  0.00    +0.082 A 
ATOM     23  N   UNL     1      -5.187  18.856  68.375  0.00  0.00    -0.244 NA
ATOM     24  C   UNL     1      -3.977  19.402  68.643  0.00  0.00    +0.099 A 
ATOM     25  C   UNL     1      -3.953  20.473  69.513  0.00  0.00    +0.021 A 
ATOM     26  C   UNL     1      -4.996  20.576  70.424  0.00  0.00    +0.003 A 
ATOM     27  C   UNL     1      -6.255  20.287  69.911  0.00  0.00    +0.019 A 
ENDBRANCH  17  22
ENDBRANCH   2  15
TORSDOF 4
ENDMDL
