MODEL 1
REMARK VINA RESULT:      -6.8      0.000      0.000
REMARK  Name = 
REMARK  6 active torsions:
REMARK  status: ('A' for Active; 'I' for Inactive)
REMARK    1  A    between atoms: N_2  and  C_4
REMARK    2  A    between atoms: C_4  and  C_5
REMARK    3  A    between atoms: C_5  and  C_6
REMARK    4  A    between atoms: C_12  and  C_13
REMARK    5  A    between atoms: C_13  and  S_14
REMARK    6  A    between atoms: S_14  and  N_17
REMARK                            x       y       z     vdW  Elec       q    Type
REMARK                         _______ _______ _______ _____ _____    ______ ____
ROOT
ATOM      1  C   UNL     1     -11.897  13.231  69.745  0.00  0.00    -0.000 A 
ATOM      2  C   UNL     1     -11.704  13.896  68.541  0.00  0.00    +0.015 A 
ATOM      3  C   UNL     1     -11.965  12.966  67.545  0.00  0.00    +0.081 A 
ATOM      4  C   UNL     1     -12.031  13.460  66.254  0.00  0.00    +0.019 A 
ATOM      5  C   UNL     1     -11.383  14.648  65.941  0.00  0.00    -0.001 A 
ATOM      6  C   UNL     1     -10.793  15.441  66.917  0.00  0.00    +0.003 A 
ATOM      7  N   UNL     1     -11.934  11.767  68.132  0.00  0.00    -0.244 NA
ATOM      8  C   UNL     1     -11.131  15.121  68.225  0.00  0.00    -0.001 A 
ATOM      9  C   UNL     1     -11.793  11.890  69.475  0.00  0.00    +0.095 A 
ENDROOT
BRANCH   1  10
ATOM     10  C   UNL     1     -12.118  13.953  71.017  0.00  0.00    +0.045 C 
BRANCH  10  11
ATOM     11  C   UNL     1     -13.250  13.231  71.736  0.00  0.00    +0.077 C 
BRANCH  11  13
ATOM     12  C   UNL     1     -13.127  15.065  73.294  0.00  0.00    +0.090 C 
ATOM     13  N   UNL     1     -13.973  14.232  72.481  0.00  0.00    -0.270 NA
ATOM     14  C   UNL     1     -14.906  14.975  71.670  0.00  0.00    +0.090 C 
ENDBRANCH  11  13
ENDBRANCH  10  11
ENDBRANCH   1  10
BRANCH   6  15
ATOM     15  C   UNL     1      -9.602  16.276  66.630  0.00  0.00    +0.195 C 
BRANCH  15  16
ATOM     16  S   UNL     1     -10.105  17.929  66.252  0.00  0.00    +0.048 S 
ATOM     17  O   UNL     1     -10.936  18.414  67.406  0.00  0.00    -0.157 OA
ATOM     18  O   UNL     1     -10.941  18.007  65.018  0.00  0.00    -0.157 OA
BRANCH  16  19
ATOM     19  N   UNL     1      -8.682  18.906  66.074  0.00  0.00    -0.159 NA
ATOM     20  C   UNL     1      -8.608  19.916  67.099  0.00  0.00    +0.095 C 
ATOM     21  C   UNL     1      -7.440  19.564  67.990  0.00  0.00    +0.021 C 
ATOM     22  C   UNL     1      -6.508  18.881  67.006  0.00  0.00    +0.021 C 
ATOM     23  C   UNL     1      -7.488  18.104  66.160  0.00  0.00    +0.095 C 
ENDBRANCH  16  19
ENDBRANCH  15  16
ENDBRANCH   6  15
TORSDOF 6
ENDMDL
MODEL 2
REMARK VINA RESULT:      -6.8      1.375      1.707
REMARK  Name = 
REMARK  6 active torsions:
REMARK  status: ('A' for Active; 'I' for Inactive)
REMARK    1  A    between atoms: N_2  and  C_4
REMARK    2  A    between atoms: C_4  and  C_5
REMARK    3  A    between atoms: C_5  and  C_6
REMARK    4  A    between atoms: C_12  and  C_13
REMARK    5  A    between atoms: C_13  and  S_14
REMARK    6  A    between atoms: S_14  and  N_17
REMARK                            x       y       z     vdW  Elec       q    Type
REMARK                         _______ _______ _______ _____ _____    ______ ____
ROOT
ATOM      1  C   UNL     1     -12.061  12.933  69.599  0.00  0.00    -0.000 A 
ATOM      2  C   UNL     1     -11.575  13.285  68.346  0.00  0.00    +0.015 A 
ATOM      3  C   UNL     1     -11.697  12.152  67.555  0.00  0.00    +0.081 A 
ATOM      4  C   UNL     1     -11.461  12.325  66.203  0.00  0.00    +0.019 A 
ATOM      5  C   UNL     1     -10.673  13.387  65.776  0.00  0.00    -0.001 A 
ATOM      6  C   UNL     1     -10.236  14.373  66.649  0.00  0.00    +0.003 A 
ATOM      7  N   UNL     1     -11.880  11.127  68.392  0.00  0.00    -0.244 NA
ATOM      8  C   UNL     1     -10.858  14.384  67.890  0.00  0.00    -0.001 A 
ATOM      9  C   UNL     1     -12.007  11.563  69.669  0.00  0.00    +0.095 A 
ENDROOT
BRANCH   1  10
ATOM     10  C   UNL     1     -12.481  13.943  70.593  0.00  0.00    +0.045 C 
BRANCH  10  11
ATOM     11  C   UNL     1     -13.095  13.177  71.759  0.00  0.00    +0.077 C 
BRANCH  11  13
ATOM     12  C   UNL     1     -12.954  14.893  73.443  0.00  0.00    +0.090 C 
ATOM     13  N   UNL     1     -13.806  14.142  72.560  0.00  0.00    -0.270 NA
ATOM     14  C   UNL     1     -14.705  14.965  71.788  0.00  0.00    +0.090 C 
ENDBRANCH  11  13
ENDBRANCH  10  11
ENDBRANCH   1  10
BRANCH   6  15
ATOM     15  C   UNL     1      -8.951  15.085  66.445  0.00  0.00    +0.195 C 
BRANCH  15  16
ATOM     16  S   UNL     1      -9.259  16.794  66.114  0.00  0.00    +0.048 S 
ATOM     17  O   UNL     1     -10.365  16.857  65.098  0.00  0.00    -0.157 OA
ATOM     18  O   UNL     1      -8.071  17.493  65.545  0.00  0.00    -0.157 OA
BRANCH  16  19
ATOM     19  N   UNL     1      -9.750  17.558  67.594  0.00  0.00    -0.159 NA
ATOM     20  C   UNL     1      -8.614  17.884  68.418  0.00  0.00    +0.095 C 
ATOM     21  C   UNL     1      -8.510  19.391  68.460  0.00  0.00    +0.021 C 
ATOM     22  C   UNL     1      -9.966  19.795  68.330  0.00  0.00    +0.021 C 
ATOM     23  C   UNL     1     -10.469  18.779  67.333  0.00  0.00    +0.095 C 
ENDBRANCH  16  19
ENDBRANCH  15  16
ENDBRANCH   6  15
TORSDOF 6
ENDMDL
MODEL 3
REMARK VINA RESULT:      -6.5      2.982      4.972
REMARK  Name = 
REMARK  6 active torsions:
REMARK  status: ('A' for Active; 'I' for Inactive)
REMARK    1  A    between atoms: N_2  and  C_4
REMARK    2  A    between atoms: C_4  and  C_5
REMARK    3  A    between atoms: C_5  and  C_6
REMARK    4  A    between atoms: C_12  and  C_13
REMARK    5  A    between atoms: C_13  and  S_14
REMARK    6  A    between atoms: S_14  and  N_17
REMARK                            x       y       z     vdW  Elec       q    Type
REMARK                         _______ _______ _______ _____ _____    ______ ____
ROOT
ATOM      1  C   UNL     1     -12.750  12.607  71.174  0.00  0.00    -0.000 A 
ATOM      2  C   UNL     1     -12.171  13.734  70.606  0.00  0.00    +0.015 A 
ATOM      3  C   UNL     1     -12.350  14.760  71.522  0.00  0.00    +0.081 A 
ATOM      4  C   UNL     1     -11.674  15.938  71.257  0.00  0.00    +0.019 A 
ATOM      5  C   UNL     1     -11.296  16.231  69.953  0.00  0.00    -0.001 A 
ATOM      6  C   UNL     1     -11.438  15.311  68.923  0.00  0.00    +0.003 A 
ATOM      7  N   UNL     1     -13.291  14.344  72.374  0.00  0.00    -0.244 NA
ATOM      8  C   UNL     1     -11.714  14.011  69.324  0.00  0.00    -0.001 A 
ATOM      9  C   UNL     1     -13.632  13.056  72.125  0.00  0.00    +0.095 A 
ENDROOT
BRANCH   1  10
ATOM     10  C   UNL     1     -12.424  11.238  70.718  0.00  0.00    +0.045 C 
BRANCH  10  11
ATOM     11  C   UNL     1     -13.054  10.283  71.724  0.00  0.00    +0.077 C 
BRANCH  11  13
ATOM     12  C   UNL     1     -12.789   7.888  71.724  0.00  0.00    +0.090 C 
ATOM     13  N   UNL     1     -12.148   9.169  71.860  0.00  0.00    -0.270 NA
ATOM     14  C   UNL     1     -10.958   9.307  71.057  0.00  0.00    +0.090 C 
ENDBRANCH  11  13
ENDBRANCH  10  11
ENDBRANCH   1  10
BRANCH   6  15
ATOM     15  C   UNL     1     -11.688  15.736  67.524  0.00  0.00    +0.195 C 
BRANCH  15  16
ATOM     16  S   UNL     1     -10.241  15.455  66.546  0.00  0.00    +0.048 S 
ATOM     17  O   UNL     1      -9.140  15.059  67.488  0.00  0.00    -0.157 OA
ATOM     18  O   UNL     1      -9.800  16.674  65.809  0.00  0.00    -0.157 OA
BRANCH  16  19
ATOM     19  N   UNL     1     -10.578  14.169  65.429  0.00  0.00    -0.159 NA
ATOM     20  C   UNL     1     -10.326  12.880  66.023  0.00  0.00    +0.095 C 
ATOM     21  C   UNL     1     -11.662  12.192  66.179  0.00  0.00    +0.021 C 
ATOM     22  C   UNL     1     -12.434  12.766  65.005  0.00  0.00    +0.021 C 
ATOM     23  C   UNL     1     -11.955  14.197  65.007  0.00  0.00    +0.095 C 
ENDBRANCH  16  19
ENDBRANCH  15  16
ENDBRANCH   6  15
TORSDOF 6
ENDMDL
MODEL 4
REMARK VINA RESULT:      -6.4      2.237      3.906
REMARK  Name = 
REMARK  6 active torsions:
REMARK  status: ('A' for Active; 'I' for Inactive)
REMARK    1  A    between atoms: N_2  and  C_4
REMARK    2  A    between atoms: C_4  and  C_5
REMARK    3  A    between atoms: C_5  and  C_6
REMARK    4  A    between atoms: C_12  and  C_13
REMARK    5  A    between atoms: C_13  and  S_14
REMARK    6  A    between atoms: S_14  and  N_17
REMARK                            x       y       z     vdW  Elec       q    Type
REMARK                         _______ _______ _______ _____ _____    ______ ____
ROOT
ATOM      1  C   UNL     1     -12.738  12.466  71.272  0.00  0.00    -0.000 A 
ATOM      2  C   UNL     1     -12.155  13.624  70.774  0.00  0.00    +0.015 A 
ATOM      3  C   UNL     1     -12.399  14.612  71.717  0.00  0.00    +0.081 A 
ATOM      4  C   UNL     1     -11.735  15.811  71.527  0.00  0.00    +0.019 A 
ATOM      5  C   UNL     1     -11.300  16.160  70.255  0.00  0.00    -0.001 A 
ATOM      6  C   UNL     1     -11.374  15.276  69.187  0.00  0.00    +0.003 A 
ATOM      7  N   UNL     1     -13.371  14.148  72.506  0.00  0.00    -0.244 NA
ATOM      8  C   UNL     1     -11.642  13.957  69.526  0.00  0.00    -0.001 A 
ATOM      9  C   UNL     1     -13.673  12.863  72.194  0.00  0.00    +0.095 A 
ENDROOT
BRANCH   1  10
ATOM     10  C   UNL     1     -12.362  11.122  70.784  0.00  0.00    +0.045 C 
BRANCH  10  11
ATOM     11  C   UNL     1     -13.090  10.118  71.669  0.00  0.00    +0.077 C 
BRANCH  11  13
ATOM     12  C   UNL     1     -12.712   7.739  71.716  0.00  0.00    +0.090 C 
ATOM     13  N   UNL     1     -12.159   9.049  71.936  0.00  0.00    -0.270 NA
ATOM     14  C   UNL     1     -10.876   9.247  71.306  0.00  0.00    +0.090 C 
ENDBRANCH  11  13
ENDBRANCH  10  11
ENDBRANCH   1  10
BRANCH   6  15
ATOM     15  C   UNL     1     -11.564  15.747  67.794  0.00  0.00    +0.195 C 
BRANCH  15  16
ATOM     16  S   UNL     1     -10.152  16.678  67.278  0.00  0.00    +0.048 S 
ATOM     17  O   UNL     1     -10.173  16.720  65.776  0.00  0.00    -0.157 OA
ATOM     18  O   UNL     1      -8.865  16.055  67.703  0.00  0.00    -0.157 OA
BRANCH  16  19
ATOM     19  N   UNL     1     -10.286  18.281  67.932  0.00  0.00    -0.159 NA
ATOM     20  C   UNL     1      -9.041  18.715  68.516  0.00  0.00    +0.095 C 
ATOM     21  C   UNL     1      -8.509  19.835  67.653  0.00  0.00    +0.021 C 
ATOM     22  C   UNL     1      -9.796  20.456  67.141  0.00  0.00    +0.021 C 
ATOM     23  C   UNL     1     -10.645  19.230  66.908  0.00  0.00    +0.095 C 
ENDBRANCH  16  19
ENDBRANCH  15  16
ENDBRANCH   6  15
TORSDOF 6
ENDMDL
MODEL 5
REMARK VINA RESULT:      -6.3      3.423      5.984
REMARK  Name = 
REMARK  6 active torsions:
REMARK  status: ('A' for Active; 'I' for Inactive)
REMARK    1  A    between atoms: N_2  and  C_4
REMARK    2  A    between atoms: C_4  and  C_5
REMARK    3  A    between atoms: C_5  and  C_6
REMARK    4  A    between atoms: C_12  and  C_13
REMARK    5  A    between atoms: C_13  and  S_14
REMARK    6  A    between atoms: S_14  and  N_17
REMARK                            x       y       z     vdW  Elec       q    Type
REMARK                         _______ _______ _______ _____ _____    ______ ____
ROOT
ATOM      1  C   UNL     1     -10.923  11.574  64.312  0.00  0.00    -0.000 A 
ATOM      2  C   UNL     1     -10.988  12.499  65.346  0.00  0.00    +0.015 A 
ATOM      3  C   UNL     1     -12.258  13.055  65.282  0.00  0.00    +0.081 A 
ATOM      4  C   UNL     1     -12.622  13.863  66.345  0.00  0.00    +0.019 A 
ATOM      5  C   UNL     1     -11.636  14.470  67.113  0.00  0.00    -0.001 A 
ATOM      6  C   UNL     1     -10.290  14.175  66.945  0.00  0.00    +0.003 A 
ATOM      7  N   UNL     1     -12.742  12.751  64.076  0.00  0.00    -0.244 NA
ATOM      8  C   UNL     1     -10.021  13.052  66.175  0.00  0.00    -0.001 A 
ATOM      9  C   UNL     1     -11.899  11.922  63.412  0.00  0.00    +0.095 A 
ENDROOT
BRANCH   1  10
ATOM     10  C   UNL     1      -9.914  10.493  64.284  0.00  0.00    +0.045 C 
BRANCH  10  11
ATOM     11  C   UNL     1      -9.534  10.290  62.822  0.00  0.00    +0.077 C 
BRANCH  11  13
ATOM     12  C   UNL     1      -7.258   9.962  63.540  0.00  0.00    +0.090 C 
ATOM     13  N   UNL     1      -8.157  10.698  62.692  0.00  0.00    -0.270 NA
ATOM     14  C   UNL     1      -7.719  10.780  61.320  0.00  0.00    +0.090 C 
ENDBRANCH  11  13
ENDBRANCH  10  11
ENDBRANCH   1  10
BRANCH   6  15
ATOM     15  C   UNL     1      -9.231  15.180  67.206  0.00  0.00    +0.195 C 
BRANCH  15  16
ATOM     16  S   UNL     1      -9.494  16.604  66.192  0.00  0.00    +0.048 S 
ATOM     17  O   UNL     1     -10.251  16.149  64.976  0.00  0.00    -0.157 OA
ATOM     18  O   UNL     1      -8.218  17.227  65.733  0.00  0.00    -0.157 OA
BRANCH  16  19
ATOM     19  N   UNL     1     -10.430  17.754  67.095  0.00  0.00    -0.159 NA
ATOM     20  C   UNL     1     -10.001  17.815  68.470  0.00  0.00    +0.095 C 
ATOM     21  C   UNL     1      -9.371  19.172  68.681  0.00  0.00    +0.021 C 
ATOM     22  C   UNL     1     -10.159  20.024  67.703  0.00  0.00    +0.021 C 
ATOM     23  C   UNL     1     -10.306  19.076  66.537  0.00  0.00    +0.095 C 
ENDBRANCH  16  19
ENDBRANCH  15  16
ENDBRANCH   6  15
TORSDOF 6
ENDMDL
MODEL 6
REMARK VINA RESULT:      -6.3      3.455      5.390
REMARK  Name = 
REMARK  6 active torsions:
REMARK  status: ('A' for Active; 'I' for Inactive)
REMARK    1  A    between atoms: N_2  and  C_4
REMARK    2  A    between atoms: C_4  and  C_5
REMARK    3  A    between atoms: C_5  and  C_6
REMARK    4  A    between atoms: C_12  and  C_13
REMARK    5  A    between atoms: C_13  and  S_14
REMARK    6  A    between atoms: S_14  and  N_17
REMARK                            x       y       z     vdW  Elec       q    Type
REMARK                         _______ _______ _______ _____ _____    ______ ____
ROOT
ATOM      1  C   UNL     1     -12.346  11.620  70.926  0.00  0.00    -0.000 A 
ATOM      2  C   UNL     1     -12.054  12.723  70.134  0.00  0.00    +0.015 A 
ATOM      3  C   UNL     1     -12.445  13.835  70.867  0.00  0.00    +0.081 A 
ATOM      4  C   UNL     1     -12.064  15.064  70.359  0.00  0.00    +0.019 A 
ATOM      5  C   UNL     1     -11.790  15.188  69.002  0.00  0.00    -0.001 A 
ATOM      6  C   UNL     1     -11.738  14.086  68.160  0.00  0.00    +0.003 A 
ATOM      7  N   UNL     1     -13.247  13.384  71.835  0.00  0.00    -0.244 NA
ATOM      8  C   UNL     1     -11.699  12.854  68.798  0.00  0.00    -0.001 A 
ATOM      9  C   UNL     1     -13.288  12.029  71.837  0.00  0.00    +0.095 A 
ENDROOT
BRANCH   1  10
ATOM     10  C   UNL     1     -11.723  10.299  70.697  0.00  0.00    +0.045 C 
BRANCH  10  11
ATOM     11  C   UNL     1     -12.466   9.308  71.585  0.00  0.00    +0.077 C 
BRANCH  11  13
ATOM     12  C   UNL     1     -11.795   7.031  71.997  0.00  0.00    +0.090 C 
ATOM     13  N   UNL     1     -11.471   8.426  72.143  0.00  0.00    -0.270 NA
ATOM     14  C   UNL     1     -10.129   8.752  71.727  0.00  0.00    +0.090 C 
ENDBRANCH  11  13
ENDBRANCH  10  11
ENDBRANCH   1  10
BRANCH   6  15
ATOM     15  C   UNL     1     -12.107  14.179  66.727  0.00  0.00    +0.195 C 
BRANCH  15  16
ATOM     16  S   UNL     1     -10.679  14.584  65.766  0.00  0.00    +0.048 S 
ATOM     17  O   UNL     1      -9.474  14.282  66.613  0.00  0.00    -0.157 OA
ATOM     18  O   UNL     1     -10.627  16.027  65.391  0.00  0.00    -0.157 OA
BRANCH  16  19
ATOM     19  N   UNL     1     -10.682  13.595  64.339  0.00  0.00    -0.159 NA
ATOM     20  C   UNL     1     -10.097  12.303  64.595  0.00  0.00    +0.095 C 
ATOM     21  C   UNL     1     -11.206  11.282  64.493  0.00  0.00    +0.021 C 
ATOM     22  C   UNL     1     -12.113  11.928  63.463  0.00  0.00    +0.021 C 
ATOM     23  C   UNL     1     -12.024  13.382  63.859  0.00  0.00    +0.095 C 
ENDBRANCH  16  19
ENDBRANCH  15  16
ENDBRANCH   6  15
TORSDOF 6
ENDMDL
MODEL 7
REMARK VINA RESULT:      -6.3      1.316      1.743
REMARK  Name = 
REMARK  6 active torsions:
REMARK  status: ('A' for Active; 'I' for Inactive)
REMARK    1  A    between atoms: N_2  and  C_4
REMARK    2  A    between atoms: C_4  and  C_5
REMARK    3  A    between atoms: C_5  and  C_6
REMARK    4  A    between atoms: C_12  and  C_13
REMARK    5  A    between atoms: C_13  and  S_14
REMARK    6  A    between atoms: S_14  and  N_17
REMARK                            x       y       z     vdW  Elec       q    Type
REMARK                         _______ _______ _______ _____ _____    ______ ____
ROOT
ATOM      1  C   UNL     1     -11.716  13.724  69.518  0.00  0.00    -0.000 A 
ATOM      2  C   UNL     1     -11.425  14.347  68.312  0.00  0.00    +0.015 A 
ATOM      3  C   UNL     1     -11.859  13.481  67.319  0.00  0.00    +0.081 A 
ATOM      4  C   UNL     1     -11.855  13.983  66.029  0.00  0.00    +0.019 A 
ATOM      5  C   UNL     1     -11.012  15.039  65.708  0.00  0.00    -0.001 A 
ATOM      6  C   UNL     1     -10.279  15.713  66.675  0.00  0.00    +0.003 A 
ATOM      7  N   UNL     1     -12.032  12.293  67.904  0.00  0.00    -0.244 NA
ATOM      8  C   UNL     1     -10.650  15.453  67.988  0.00  0.00    -0.001 A 
ATOM      9  C   UNL     1     -11.854  12.386  69.246  0.00  0.00    +0.095 A 
ENDROOT
BRANCH   1  10
ATOM     10  C   UNL     1     -11.790  14.470  70.793  0.00  0.00    +0.045 C 
BRANCH  10  11
ATOM     11  C   UNL     1     -12.835  15.561  70.599  0.00  0.00    +0.077 C 
BRANCH  11  13
ATOM     12  C   UNL     1     -14.684  14.533  71.750  0.00  0.00    +0.090 C 
ATOM     13  N   UNL     1     -13.668  15.551  71.775  0.00  0.00    -0.270 NA
ATOM     14  C   UNL     1     -12.912  15.581  73.003  0.00  0.00    +0.090 C 
ENDBRANCH  11  13
ENDBRANCH  10  11
ENDBRANCH   1  10
BRANCH   6  15
ATOM     15  C   UNL     1      -8.963  16.326  66.374  0.00  0.00    +0.195 C 
BRANCH  15  16
ATOM     16  S   UNL     1      -9.026  18.065  66.690  0.00  0.00    +0.048 S 
ATOM     17  O   UNL     1     -10.453  18.498  66.501  0.00  0.00    -0.157 OA
ATOM     18  O   UNL     1      -8.178  18.853  65.749  0.00  0.00    -0.157 OA
BRANCH  16  19
ATOM     19  N   UNL     1      -8.520  18.342  68.327  0.00  0.00    -0.159 NA
ATOM     20  C   UNL     1      -7.563  17.351  68.754  0.00  0.00    +0.095 C 
ATOM     21  C   UNL     1      -6.239  18.057  68.934  0.00  0.00    +0.021 C 
ATOM     22  C   UNL     1      -6.693  19.444  69.349  0.00  0.00    +0.021 C 
ATOM     23  C   UNL     1      -7.903  19.637  68.467  0.00  0.00    +0.095 C 
ENDBRANCH  16  19
ENDBRANCH  15  16
ENDBRANCH   6  15
TORSDOF 6
ENDMDL
MODEL 8
REMARK VINA RESULT:      -6.3      3.443      6.942
REMARK  Name = 
REMARK  6 active torsions:
REMARK  status: ('A' for Active; 'I' for Inactive)
REMARK    1  A    between atoms: N_2  and  C_4
REMARK    2  A    between atoms: C_4  and  C_5
REMARK    3  A    between atoms: C_5  and  C_6
REMARK    4  A    between atoms: C_12  and  C_13
REMARK    5  A    between atoms: C_13  and  S_14
REMARK    6  A    between atoms: S_14  and  N_17
REMARK                            x       y       z     vdW  Elec       q    Type
REMARK                         _______ _______ _______ _____ _____    ______ ____
ROOT
ATOM      1  C   UNL     1      -7.145  17.890  66.238  0.00  0.00    -0.000 A 
ATOM      2  C   UNL     1      -7.851  16.720  66.487  0.00  0.00    +0.015 A 
ATOM      3  C   UNL     1      -6.947  15.844  67.070  0.00  0.00    +0.081 A 
ATOM      4  C   UNL     1      -7.479  14.677  67.591  0.00  0.00    +0.019 A 
ATOM      5  C   UNL     1      -8.692  14.202  67.107  0.00  0.00    -0.001 A 
ATOM      6  C   UNL     1      -9.467  14.938  66.222  0.00  0.00    +0.003 A 
ATOM      7  N   UNL     1      -5.731  16.337  66.822  0.00  0.00    -0.244 NA
ATOM      8  C   UNL     1      -9.099  16.269  66.076  0.00  0.00    -0.001 A 
ATOM      9  C   UNL     1      -5.816  17.550  66.220  0.00  0.00    +0.095 A 
ENDROOT
BRANCH   1  10
ATOM     10  C   UNL     1      -7.822  19.184  66.008  0.00  0.00    +0.045 C 
BRANCH  10  11
ATOM     11  C   UNL     1      -7.962  19.850  67.371  0.00  0.00    +0.077 C 
BRANCH  11  13
ATOM     12  C   UNL     1     -10.190  19.910  66.457  0.00  0.00    +0.090 C 
ATOM     13  N   UNL     1      -9.375  19.946  67.642  0.00  0.00    -0.270 NA
ATOM     14  C   UNL     1      -9.815  19.038  68.673  0.00  0.00    +0.090 C 
ENDBRANCH  11  13
ENDBRANCH  10  11
ENDBRANCH   1  10
BRANCH   6  15
ATOM     15  C   UNL     1     -10.340  14.285  65.217  0.00  0.00    +0.195 C 
BRANCH  15  16
ATOM     16  S   UNL     1     -11.879  13.834  65.962  0.00  0.00    +0.048 S 
ATOM     17  O   UNL     1     -12.968  14.242  65.010  0.00  0.00    -0.157 OA
ATOM     18  O   UNL     1     -12.117  14.530  67.259  0.00  0.00    -0.157 OA
BRANCH  16  19
ATOM     19  N   UNL     1     -11.889  12.113  66.195  0.00  0.00    -0.159 NA
ATOM     20  C   UNL     1     -10.935  11.461  65.334  0.00  0.00    +0.095 C 
ATOM     21  C   UNL     1      -9.846  10.900  66.218  0.00  0.00    +0.021 C 
ATOM     22  C   UNL     1     -10.618  10.593  67.487  0.00  0.00    +0.021 C 
ATOM     23  C   UNL     1     -11.557  11.773  67.556  0.00  0.00    +0.095 C 
ENDBRANCH  16  19
ENDBRANCH  15  16
ENDBRANCH   6  15
TORSDOF 6
ENDMDL
MODEL 9
REMARK VINA RESULT:      -6.2      3.339      5.529
REMARK  Name = 
REMARK  6 active torsions:
REMARK  status: ('A' for Active; 'I' for Inactive)
REMARK    1  A    between atoms: N_2  and  C_4
REMARK    2  A    between atoms: C_4  and  C_5
REMARK    3  A    between atoms: C_5  and  C_6
REMARK    4  A    between atoms: C_12  and  C_13
REMARK    5  A    between atoms: C_13  and  S_14
REMARK    6  A    between atoms: S_14  and  N_17
REMARK                            x       y       z     vdW  Elec       q    Type
REMARK                         _______ _______ _______ _____ _____    ______ ____
ROOT
ATOM      1  C   UNL     1     -10.832  11.625  64.320  0.00  0.00    -0.000 A 
ATOM      2  C   UNL     1     -10.831  12.475  65.418  0.00  0.00    +0.015 A 
ATOM      3  C   UNL     1     -12.133  12.935  65.547  0.00  0.00    +0.081 A 
ATOM      4  C   UNL     1     -12.416  13.645  66.702  0.00  0.00    +0.019 A 
ATOM      5  C   UNL     1     -11.386  14.277  67.387  0.00  0.00    -0.001 A 
ATOM      6  C   UNL     1     -10.055  14.096  67.038  0.00  0.00    +0.003 A 
ATOM      7  N   UNL     1     -12.743  12.671  64.389  0.00  0.00    -0.244 NA
ATOM      8  C   UNL     1      -9.808  13.048  66.163  0.00  0.00    -0.001 A 
ATOM      9  C   UNL     1     -11.935  11.952  63.571  0.00  0.00    +0.095 A 
ENDROOT
BRANCH   1  10
ATOM     10  C   UNL     1      -9.763  10.628  64.094  0.00  0.00    +0.045 C 
BRANCH  10  11
ATOM     11  C   UNL     1      -9.874   9.608  65.220  0.00  0.00    +0.077 C 
BRANCH  11  13
ATOM     12  C   UNL     1      -8.756   7.615  65.984  0.00  0.00    +0.090 C 
ATOM     13  N   UNL     1      -8.688   8.791  65.157  0.00  0.00    -0.270 NA
ATOM     14  C   UNL     1      -8.257   8.523  63.807  0.00  0.00    +0.090 C 
ENDBRANCH  11  13
ENDBRANCH  10  11
ENDBRANCH   1  10
BRANCH   6  15
ATOM     15  C   UNL     1      -9.042  15.161  67.241  0.00  0.00    +0.195 C 
BRANCH  15  16
ATOM     16  S   UNL     1      -9.432  16.559  66.231  0.00  0.00    +0.048 S 
ATOM     17  O   UNL     1     -10.178  16.045  65.032  0.00  0.00    -0.157 OA
ATOM     18  O   UNL     1      -8.217  17.274  65.744  0.00  0.00    -0.157 OA
BRANCH  16  19
ATOM     19  N   UNL     1     -10.433  17.637  67.153  0.00  0.00    -0.159 NA
ATOM     20  C   UNL     1      -9.978  17.738  68.516  0.00  0.00    +0.095 C 
ATOM     21  C   UNL     1      -9.449  19.140  68.709  0.00  0.00    +0.021 C 
ATOM     22  C   UNL     1     -10.322  19.924  67.747  0.00  0.00    +0.021 C 
ATOM     23  C   UNL     1     -10.423  18.963  66.587  0.00  0.00    +0.095 C 
ENDBRANCH  16  19
ENDBRANCH  15  16
ENDBRANCH   6  15
TORSDOF 6
ENDMDL
