MODEL 1
REMARK VINA RESULT:      -5.6      0.000      0.000
REMARK  Name = 
REMARK  8 active torsions:
REMARK  status: ('A' for Active; 'I' for Inactive)
REMARK    1  A    between atoms: CA_2  and  C_3
REMARK    2  A    between atoms: CA_2  and  C_17
REMARK    3  A    between atoms: C_3  and  C_4
REMARK    4  A    between atoms: C_7  and  N_8
REMARK    5  A    between atoms: N_8  and  C_9
REMARK    6  A    between atoms: N_8  and  C_12
REMARK    7  A    between atoms: C_9  and  C_10
REMARK    8  A    between atoms: C_12  and  C_13
REMARK                            x       y       z     vdW  Elec       q    Type
REMARK                         _______ _______ _______ _____ _____    ______ ____
ROOT
ATOM      1  C   UNL     1     -12.697  12.958  71.199  0.00  0.00    -0.020 A 
ATOM      2  C   UNL     1     -12.023  12.488  70.080  0.00  0.00    -0.003 A 
ATOM      3  C   UNL     1     -11.663  11.151  69.985  0.00  0.00    +0.014 A 
ATOM      4  C   UNL     1     -12.125  10.247  70.930  0.00  0.00    +0.048 A 
ATOM      5  C   UNL     1     -13.121  10.669  71.784  0.00  0.00    +0.014 A 
ATOM      6  C   UNL     1     -13.387  12.028  71.929  0.00  0.00    -0.003 A 
ENDROOT
BRANCH   1   7
ATOM      7  C   UNL     1     -12.463  14.356  71.556  0.00  0.00    +0.057 C 
BRANCH   7   9
ATOM      8  N   UNL     1     -14.507  15.539  71.760  0.00  0.00    -0.120 NA
ATOM      9  CA  UNL     1     -13.564  14.713  72.763  0.00  0.00    +0.199 C 
BRANCH   9  10
ATOM     10  C   UNL     1     -12.733  16.075  73.158  0.00  0.00    +0.382 C 
ATOM     11  OXT UNL     1     -12.579  16.242  74.521  0.00  0.00    -0.244 OA
ATOM     12  O   UNL     1     -11.761  16.267  72.400  0.00  0.00    -0.244 OA
ENDBRANCH   9  10
ENDBRANCH   7   9
ENDBRANCH   1   7
BRANCH   4  13
ATOM     13  N   UNL     1     -11.347   9.084  71.176  0.00  0.00    -0.305 N 
BRANCH  13  14
ATOM     14  C   UNL     1      -9.895   9.170  71.015  0.00  0.00    +0.108 C 
BRANCH  14  15
ATOM     15  C   UNL     1      -9.431   8.046  70.107  0.00  0.00    +0.116 C 
ATOM     16 CL   UNL     1     -10.420   8.043  68.609  0.00  0.00    -0.112 Cl
ENDBRANCH  14  15
ENDBRANCH  13  14
BRANCH  13  17
ATOM     17  C   UNL     1     -11.813   8.061  72.100  0.00  0.00    +0.108 C 
BRANCH  17  18
ATOM     18  C   UNL     1     -12.639   7.020  71.360  0.00  0.00    +0.116 C 
ATOM     19 CL   UNL     1     -14.385   7.330  71.593  0.00  0.00    -0.112 Cl
ENDBRANCH  17  18
ENDBRANCH  13  17
ENDBRANCH   4  13
TORSDOF 8
ENDMDL
MODEL 2
REMARK VINA RESULT:      -5.4      3.963      5.282
REMARK  Name = 
REMARK  8 active torsions:
REMARK  status: ('A' for Active; 'I' for Inactive)
REMARK    1  A    between atoms: CA_2  and  C_3
REMARK    2  A    between atoms: CA_2  and  C_17
REMARK    3  A    between atoms: C_3  and  C_4
REMARK    4  A    between atoms: C_7  and  N_8
REMARK    5  A    between atoms: N_8  and  C_9
REMARK    6  A    between atoms: N_8  and  C_12
REMARK    7  A    between atoms: C_9  and  C_10
REMARK    8  A    between atoms: C_12  and  C_13
REMARK                            x       y       z     vdW  Elec       q    Type
REMARK                         _______ _______ _______ _____ _____    ______ ____
ROOT
ATOM      1  C   UNL     1     -12.276  14.776  69.964  0.00  0.00    -0.020 A 
ATOM      2  C   UNL     1     -11.879  13.448  69.887  0.00  0.00    -0.003 A 
ATOM      3  C   UNL     1     -11.431  12.914  68.687  0.00  0.00    +0.014 A 
ATOM      4  C   UNL     1     -11.218  13.751  67.602  0.00  0.00    +0.048 A 
ATOM      5  C   UNL     1     -11.226  15.110  67.831  0.00  0.00    +0.014 A 
ATOM      6  C   UNL     1     -11.776  15.616  69.006  0.00  0.00    -0.003 A 
ENDROOT
BRANCH   1   7
ATOM      7  C   UNL     1     -13.302  15.088  70.957  0.00  0.00    +0.057 C 
BRANCH   7   9
ATOM      8  N   UNL     1     -14.005  13.486  72.558  0.00  0.00    -0.120 NA
ATOM      9  CA  UNL     1     -12.743  14.466  72.406  0.00  0.00    +0.199 C 
BRANCH   9  10
ATOM     10  C   UNL     1     -13.514  15.650  73.245  0.00  0.00    +0.382 C 
ATOM     11  OXT UNL     1     -12.659  16.427  74.001  0.00  0.00    -0.244 OA
ATOM     12  O   UNL     1     -14.409  16.196  72.569  0.00  0.00    -0.244 OA
ENDBRANCH   9  10
ENDBRANCH   7   9
ENDBRANCH   1   7
BRANCH   4  13
ATOM     13  N   UNL     1     -11.327  13.194  66.299  0.00  0.00    -0.305 N 
BRANCH  13  14
ATOM     14  C   UNL     1     -12.467  13.583  65.468  0.00  0.00    +0.108 C 
BRANCH  14  15
ATOM     15  C   UNL     1     -12.070  13.486  64.007  0.00  0.00    +0.116 C 
ATOM     16 CL   UNL     1     -12.695  11.949  63.320  0.00  0.00    -0.112 Cl
ENDBRANCH  14  15
ENDBRANCH  13  14
BRANCH  13  17
ATOM     17  C   UNL     1     -10.140  12.769  65.571  0.00  0.00    +0.108 C 
BRANCH  17  18
ATOM     18  C   UNL     1      -9.710  11.384  66.030  0.00  0.00    +0.116 C 
ATOM     19 CL   UNL     1     -10.079  10.169  64.770  0.00  0.00    -0.112 Cl
ENDBRANCH  17  18
ENDBRANCH  13  17
ENDBRANCH   4  13
TORSDOF 8
ENDMDL
MODEL 3
REMARK VINA RESULT:      -5.4      4.917      6.766
REMARK  Name = 
REMARK  8 active torsions:
REMARK  status: ('A' for Active; 'I' for Inactive)
REMARK    1  A    between atoms: CA_2  and  C_3
REMARK    2  A    between atoms: CA_2  and  C_17
REMARK    3  A    between atoms: C_3  and  C_4
REMARK    4  A    between atoms: C_7  and  N_8
REMARK    5  A    between atoms: N_8  and  C_9
REMARK    6  A    between atoms: N_8  and  C_12
REMARK    7  A    between atoms: C_9  and  C_10
REMARK    8  A    between atoms: C_12  and  C_13
REMARK                            x       y       z     vdW  Elec       q    Type
REMARK                         _______ _______ _______ _____ _____    ______ ____
ROOT
ATOM      1  C   UNL     1     -12.024  15.057  70.158  0.00  0.00    -0.020 A 
ATOM      2  C   UNL     1     -12.004  14.094  69.158  0.00  0.00    -0.003 A 
ATOM      3  C   UNL     1     -11.315  14.320  67.975  0.00  0.00    +0.014 A 
ATOM      4  C   UNL     1     -10.505  15.440  67.856  0.00  0.00    +0.048 A 
ATOM      5  C   UNL     1     -10.225  16.150  69.004  0.00  0.00    +0.014 A 
ATOM      6  C   UNL     1     -11.003  15.968  70.144  0.00  0.00    -0.003 A 
ENDROOT
BRANCH   1   7
ATOM      7  C   UNL     1     -13.212  15.082  71.007  0.00  0.00    +0.057 C 
BRANCH   7   9
ATOM      8  N   UNL     1     -14.012  13.452  72.532  0.00  0.00    -0.120 NA
ATOM      9  CA  UNL     1     -12.742  14.432  72.475  0.00  0.00    +0.199 C 
BRANCH   9  10
ATOM     10  C   UNL     1     -13.563  15.601  73.289  0.00  0.00    +0.382 C 
ATOM     11  OXT UNL     1     -12.751  16.372  74.098  0.00  0.00    -0.244 OA
ATOM     12  O   UNL     1     -14.423  16.153  72.574  0.00  0.00    -0.244 OA
ENDBRANCH   9  10
ENDBRANCH   7   9
ENDBRANCH   1   7
BRANCH   4  13
ATOM     13  N   UNL     1     -10.283  15.968  66.556  0.00  0.00    -0.305 N 
BRANCH  13  14
ATOM     14  C   UNL     1      -9.506  17.201  66.427  0.00  0.00    +0.108 C 
BRANCH  14  15
ATOM     15  C   UNL     1     -10.433  18.330  66.017  0.00  0.00    +0.116 C 
ATOM     16 CL   UNL     1     -10.636  19.464  67.394  0.00  0.00    -0.112 Cl
ENDBRANCH  14  15
ENDBRANCH  13  14
BRANCH  13  17
ATOM     17  C   UNL     1     -10.263  15.093  65.393  0.00  0.00    +0.108 C 
BRANCH  17  18
ATOM     18  C   UNL     1     -11.592  15.166  64.656  0.00  0.00    +0.116 C 
ATOM     19 CL   UNL     1     -12.065  13.547  64.064  0.00  0.00    -0.112 Cl
ENDBRANCH  17  18
ENDBRANCH  13  17
ENDBRANCH   4  13
TORSDOF 8
ENDMDL
MODEL 4
REMARK VINA RESULT:      -5.3      7.555      9.569
REMARK  Name = 
REMARK  8 active torsions:
REMARK  status: ('A' for Active; 'I' for Inactive)
REMARK    1  A    between atoms: CA_2  and  C_3
REMARK    2  A    between atoms: CA_2  and  C_17
REMARK    3  A    between atoms: C_3  and  C_4
REMARK    4  A    between atoms: C_7  and  N_8
REMARK    5  A    between atoms: N_8  and  C_9
REMARK    6  A    between atoms: N_8  and  C_12
REMARK    7  A    between atoms: C_9  and  C_10
REMARK    8  A    between atoms: C_12  and  C_13
REMARK                            x       y       z     vdW  Elec       q    Type
REMARK                         _______ _______ _______ _____ _____    ______ ____
ROOT
ATOM      1  C   UNL     1     -11.131  15.034  67.312  0.00  0.00    -0.020 A 
ATOM      2  C   UNL     1      -9.834  15.040  66.815  0.00  0.00    -0.003 A 
ATOM      3  C   UNL     1      -8.969  16.082  67.116  0.00  0.00    +0.014 A 
ATOM      4  C   UNL     1      -9.342  17.035  68.052  0.00  0.00    +0.048 A 
ATOM      5  C   UNL     1     -10.453  16.772  68.823  0.00  0.00    +0.014 A 
ATOM      6  C   UNL     1     -11.354  15.783  68.435  0.00  0.00    -0.003 A 
ENDROOT
BRANCH   1   7
ATOM      7  C   UNL     1     -12.134  14.361  66.491  0.00  0.00    +0.057 C 
BRANCH   7   9
ATOM      8  N   UNL     1     -12.578  14.617  64.176  0.00  0.00    -0.120 NA
ATOM      9  CA  UNL     1     -11.377  13.999  65.044  0.00  0.00    +0.199 C 
BRANCH   9  10
ATOM     10  C   UNL     1     -12.076  12.512  65.016  0.00  0.00    +0.382 C 
ATOM     11  OXT UNL     1     -12.091  11.895  66.252  0.00  0.00    -0.244 OA
ATOM     12  O   UNL     1     -13.099  12.488  64.302  0.00  0.00    -0.244 OA
ENDBRANCH   9  10
ENDBRANCH   7   9
ENDBRANCH   1   7
BRANCH   4  13
ATOM     13  N   UNL     1      -8.775  18.333  67.944  0.00  0.00    -0.305 N 
BRANCH  13  14
ATOM     14  C   UNL     1      -9.535  19.471  68.463  0.00  0.00    +0.108 C 
BRANCH  14  15
ATOM     15  C   UNL     1      -9.793  20.451  67.333  0.00  0.00    +0.116 C 
ATOM     16 CL   UNL     1     -10.570  19.589  65.963  0.00  0.00    -0.112 Cl
ENDBRANCH  14  15
ENDBRANCH  13  14
BRANCH  13  17
ATOM     17  C   UNL     1      -7.331  18.512  67.906  0.00  0.00    +0.108 C 
BRANCH  17  18
ATOM     18  C   UNL     1      -6.855  19.213  69.170  0.00  0.00    +0.116 C 
ATOM     19 CL   UNL     1      -5.987  20.721  68.756  0.00  0.00    -0.112 Cl
ENDBRANCH  17  18
ENDBRANCH  13  17
ENDBRANCH   4  13
TORSDOF 8
ENDMDL
MODEL 5
REMARK VINA RESULT:      -5.3      1.056      2.332
REMARK  Name = 
REMARK  8 active torsions:
REMARK  status: ('A' for Active; 'I' for Inactive)
REMARK    1  A    between atoms: CA_2  and  C_3
REMARK    2  A    between atoms: CA_2  and  C_17
REMARK    3  A    between atoms: C_3  and  C_4
REMARK    4  A    between atoms: C_7  and  N_8
REMARK    5  A    between atoms: N_8  and  C_9
REMARK    6  A    between atoms: N_8  and  C_12
REMARK    7  A    between atoms: C_9  and  C_10
REMARK    8  A    between atoms: C_12  and  C_13
REMARK                            x       y       z     vdW  Elec       q    Type
REMARK                         _______ _______ _______ _____ _____    ______ ____
ROOT
ATOM      1  C   UNL     1     -12.664  13.045  71.089  0.00  0.00    -0.020 A 
ATOM      2  C   UNL     1     -11.983  12.642  69.948  0.00  0.00    -0.003 A 
ATOM      3  C   UNL     1     -11.536  11.334  69.820  0.00  0.00    +0.014 A 
ATOM      4  C   UNL     1     -11.917  10.384  70.756  0.00  0.00    +0.048 A 
ATOM      5  C   UNL     1     -12.920  10.722  71.638  0.00  0.00    +0.014 A 
ATOM      6  C   UNL     1     -13.273  12.057  71.814  0.00  0.00    -0.003 A 
ENDROOT
BRANCH   1   7
ATOM      7  C   UNL     1     -12.516  14.448  71.468  0.00  0.00    +0.057 C 
BRANCH   7   9
ATOM      8  N   UNL     1     -14.311  15.781  72.259  0.00  0.00    -0.120 NA
ATOM      9  CA  UNL     1     -13.379  14.635  72.888  0.00  0.00    +0.199 C 
BRANCH   9  10
ATOM     10  C   UNL     1     -12.305  15.755  73.429  0.00  0.00    +0.382 C 
ATOM     11  OXT UNL     1     -11.820  16.572  72.426  0.00  0.00    -0.244 OA
ATOM     12  O   UNL     1     -12.659  16.256  74.515  0.00  0.00    -0.244 OA
ENDBRANCH   9  10
ENDBRANCH   7   9
ENDBRANCH   1   7
BRANCH   4  13
ATOM     13  N   UNL     1     -11.057   9.272  70.964  0.00  0.00    -0.305 N 
BRANCH  13  14
ATOM     14  C   UNL     1     -11.654   7.985  71.321  0.00  0.00    +0.108 C 
BRANCH  14  15
ATOM     15  C   UNL     1     -11.219   7.609  72.725  0.00  0.00    +0.116 C 
ATOM     16 CL   UNL     1     -11.040   5.826  72.836  0.00  0.00    -0.112 Cl
ENDBRANCH  14  15
ENDBRANCH  13  14
BRANCH  13  17
ATOM     17  C   UNL     1      -9.766   9.197  70.296  0.00  0.00    +0.108 C 
BRANCH  17  18
ATOM     18  C   UNL     1      -9.753   8.043  69.304  0.00  0.00    +0.116 C 
ATOM     19 CL   UNL     1     -10.493   8.545  67.755  0.00  0.00    -0.112 Cl
ENDBRANCH  17  18
ENDBRANCH  13  17
ENDBRANCH   4  13
TORSDOF 8
ENDMDL
MODEL 6
REMARK VINA RESULT:      -5.3      7.265      9.157
REMARK  Name = 
REMARK  8 active torsions:
REMARK  status: ('A' for Active; 'I' for Inactive)
REMARK    1  A    between atoms: CA_2  and  C_3
REMARK    2  A    between atoms: CA_2  and  C_17
REMARK    3  A    between atoms: C_3  and  C_4
REMARK    4  A    between atoms: C_7  and  N_8
REMARK    5  A    between atoms: N_8  and  C_9
REMARK    6  A    between atoms: N_8  and  C_12
REMARK    7  A    between atoms: C_9  and  C_10
REMARK    8  A    between atoms: C_12  and  C_13
REMARK                            x       y       z     vdW  Elec       q    Type
REMARK                         _______ _______ _______ _____ _____    ______ ____
ROOT
ATOM      1  C   UNL     1     -11.135  15.042  67.349  0.00  0.00    -0.020 A 
ATOM      2  C   UNL     1      -9.874  15.206  66.792  0.00  0.00    -0.003 A 
ATOM      3  C   UNL     1      -9.039  16.226  67.227  0.00  0.00    +0.014 A 
ATOM      4  C   UNL     1      -9.396  16.978  68.337  0.00  0.00    +0.048 A 
ATOM      5  C   UNL     1     -10.444  16.523  69.107  0.00  0.00    +0.014 A 
ATOM      6  C   UNL     1     -11.322  15.570  68.598  0.00  0.00    -0.003 A 
ENDROOT
BRANCH   1   7
ATOM      7  C   UNL     1     -12.157  14.468  66.476  0.00  0.00    +0.057 C 
BRANCH   7   9
ATOM      8  N   UNL     1     -12.491  14.561  64.130  0.00  0.00    -0.120 NA
ATOM      9  CA  UNL     1     -11.354  13.968  65.096  0.00  0.00    +0.199 C 
BRANCH   9  10
ATOM     10  C   UNL     1     -12.110  12.510  65.149  0.00  0.00    +0.382 C 
ATOM     11  OXT UNL     1     -11.929  11.846  66.347  0.00  0.00    -0.244 OA
ATOM     12  O   UNL     1     -13.245  12.551  64.632  0.00  0.00    -0.244 OA
ENDBRANCH   9  10
ENDBRANCH   7   9
ENDBRANCH   1   7
BRANCH   4  13
ATOM     13  N   UNL     1      -8.896  18.305  68.431  0.00  0.00    -0.305 N 
BRANCH  13  14
ATOM     14  C   UNL     1      -7.596  18.604  67.830  0.00  0.00    +0.108 C 
BRANCH  14  15
ATOM     15  C   UNL     1      -6.616  18.973  68.929  0.00  0.00    +0.116 C 
ATOM     16 CL   UNL     1      -6.039  17.478  69.740  0.00  0.00    -0.112 Cl
ENDBRANCH  14  15
ENDBRANCH  13  14
BRANCH  13  17
ATOM     17  C   UNL     1      -9.806  19.435  68.544  0.00  0.00    +0.108 C 
BRANCH  17  18
ATOM     18  C   UNL     1      -9.782  20.260  67.265  0.00  0.00    +0.116 C 
ATOM     19 CL   UNL     1     -10.624  19.391  65.948  0.00  0.00    -0.112 Cl
ENDBRANCH  17  18
ENDBRANCH  13  17
ENDBRANCH   4  13
TORSDOF 8
ENDMDL
MODEL 7
REMARK VINA RESULT:      -5.2      4.276      5.909
REMARK  Name = 
REMARK  8 active torsions:
REMARK  status: ('A' for Active; 'I' for Inactive)
REMARK    1  A    between atoms: CA_2  and  C_3
REMARK    2  A    between atoms: CA_2  and  C_17
REMARK    3  A    between atoms: C_3  and  C_4
REMARK    4  A    between atoms: C_7  and  N_8
REMARK    5  A    between atoms: N_8  and  C_9
REMARK    6  A    between atoms: N_8  and  C_12
REMARK    7  A    between atoms: C_9  and  C_10
REMARK    8  A    between atoms: C_12  and  C_13
REMARK                            x       y       z     vdW  Elec       q    Type
REMARK                         _______ _______ _______ _____ _____    ______ ____
ROOT
ATOM      1  C   UNL     1     -11.350  15.168  70.337  0.00  0.00    -0.020 A 
ATOM      2  C   UNL     1     -11.993  14.020  69.893  0.00  0.00    -0.003 A 
ATOM      3  C   UNL     1     -11.781  13.549  68.605  0.00  0.00    +0.014 A 
ATOM      4  C   UNL     1     -10.797  14.126  67.816  0.00  0.00    +0.048 A 
ATOM      5  C   UNL     1      -9.907  14.981  68.429  0.00  0.00    +0.014 A 
ATOM      6  C   UNL     1     -10.201  15.514  69.681  0.00  0.00    -0.003 A 
ENDROOT
BRANCH   1   7
ATOM      7  C   UNL     1     -12.059  15.956  71.344  0.00  0.00    +0.057 C 
BRANCH   7   9
ATOM      8  N   UNL     1     -14.327  15.677  71.978  0.00  0.00    -0.120 NA
ATOM      9  CA  UNL     1     -12.966  14.863  72.228  0.00  0.00    +0.199 C 
BRANCH   9  10
ATOM     10  C   UNL     1     -12.678  15.700  73.613  0.00  0.00    +0.382 C 
ATOM     11  OXT UNL     1     -12.318  14.890  74.673  0.00  0.00    -0.244 OA
ATOM     12  O   UNL     1     -12.045  16.754  73.400  0.00  0.00    -0.244 OA
ENDBRANCH   9  10
ENDBRANCH   7   9
ENDBRANCH   1   7
BRANCH   4  13
ATOM     13  N   UNL     1     -10.954  14.068  66.405  0.00  0.00    -0.305 N 
BRANCH  13  14
ATOM     14  C   UNL     1     -12.281  13.772  65.863  0.00  0.00    +0.108 C 
BRANCH  14  15
ATOM     15  C   UNL     1     -12.178  12.583  64.925  0.00  0.00    +0.116 C 
ATOM     16 CL   UNL     1     -11.060  11.366  65.625  0.00  0.00    -0.112 Cl
ENDBRANCH  14  15
ENDBRANCH  13  14
BRANCH  13  17
ATOM     17  C   UNL     1     -10.078  14.830  65.528  0.00  0.00    +0.108 C 
BRANCH  17  18
ATOM     18  C   UNL     1     -10.805  16.054  64.992  0.00  0.00    +0.116 C 
ATOM     19 CL   UNL     1     -10.411  17.493  65.978  0.00  0.00    -0.112 Cl
ENDBRANCH  17  18
ENDBRANCH  13  17
ENDBRANCH   4  13
TORSDOF 8
ENDMDL
MODEL 8
REMARK VINA RESULT:      -5.2      3.948      4.901
REMARK  Name = 
REMARK  8 active torsions:
REMARK  status: ('A' for Active; 'I' for Inactive)
REMARK    1  A    between atoms: CA_2  and  C_3
REMARK    2  A    between atoms: CA_2  and  C_17
REMARK    3  A    between atoms: C_3  and  C_4
REMARK    4  A    between atoms: C_7  and  N_8
REMARK    5  A    between atoms: N_8  and  C_9
REMARK    6  A    between atoms: N_8  and  C_12
REMARK    7  A    between atoms: C_9  and  C_10
REMARK    8  A    between atoms: C_12  and  C_13
REMARK                            x       y       z     vdW  Elec       q    Type
REMARK                         _______ _______ _______ _____ _____    ______ ____
ROOT
ATOM      1  C   UNL     1     -11.557  14.858  70.161  0.00  0.00    -0.020 A 
ATOM      2  C   UNL     1     -12.061  13.588  69.915  0.00  0.00    -0.003 A 
ATOM      3  C   UNL     1     -11.723  12.909  68.753  0.00  0.00    +0.014 A 
ATOM      4  C   UNL     1     -10.745  13.428  67.916  0.00  0.00    +0.048 A 
ATOM      5  C   UNL     1      -9.980  14.468  68.395  0.00  0.00    +0.014 A 
ATOM      6  C   UNL     1     -10.403  15.192  69.506  0.00  0.00    -0.003 A 
ENDROOT
BRANCH   1   7
ATOM      7  C   UNL     1     -12.399  15.743  70.963  0.00  0.00    +0.057 C 
BRANCH   7   9
ATOM      8  N   UNL     1     -14.573  15.633  71.904  0.00  0.00    -0.120 NA
ATOM      9  CA  UNL     1     -13.238  14.750  72.016  0.00  0.00    +0.199 C 
BRANCH   9  10
ATOM     10  C   UNL     1     -12.721  15.630  73.304  0.00  0.00    +0.382 C 
ATOM     11  OXT UNL     1     -12.330  14.849  74.375  0.00  0.00    -0.244 OA
ATOM     12  O   UNL     1     -12.015  16.598  72.957  0.00  0.00    -0.244 OA
ENDBRANCH   9  10
ENDBRANCH   7   9
ENDBRANCH   1   7
BRANCH   4  13
ATOM     13  N   UNL     1     -10.803  13.092  66.536  0.00  0.00    -0.305 N 
BRANCH  13  14
ATOM     14  C   UNL     1      -9.670  12.380  65.943  0.00  0.00    +0.108 C 
BRANCH  14  15
ATOM     15  C   UNL     1      -9.771  10.908  66.297  0.00  0.00    +0.116 C 
ATOM     16 CL   UNL     1     -10.002   9.949  64.796  0.00  0.00    -0.112 Cl
ENDBRANCH  14  15
ENDBRANCH  13  14
BRANCH  13  17
ATOM     17  C   UNL     1     -12.084  12.886  65.875  0.00  0.00    +0.108 C 
BRANCH  17  18
ATOM     18  C   UNL     1     -11.986  13.273  64.407  0.00  0.00    +0.116 C 
ATOM     19 CL   UNL     1     -12.597  11.949  63.372  0.00  0.00    -0.112 Cl
ENDBRANCH  17  18
ENDBRANCH  13  17
ENDBRANCH   4  13
TORSDOF 8
ENDMDL
MODEL 9
REMARK VINA RESULT:      -5.2      4.580      5.872
REMARK  Name = 
REMARK  8 active torsions:
REMARK  status: ('A' for Active; 'I' for Inactive)
REMARK    1  A    between atoms: CA_2  and  C_3
REMARK    2  A    between atoms: CA_2  and  C_17
REMARK    3  A    between atoms: C_3  and  C_4
REMARK    4  A    between atoms: C_7  and  N_8
REMARK    5  A    between atoms: N_8  and  C_9
REMARK    6  A    between atoms: N_8  and  C_12
REMARK    7  A    between atoms: C_9  and  C_10
REMARK    8  A    between atoms: C_12  and  C_13
REMARK                            x       y       z     vdW  Elec       q    Type
REMARK                         _______ _______ _______ _____ _____    ______ ____
ROOT
ATOM      1  C   UNL     1     -11.924  14.697  70.044  0.00  0.00    -0.020 A 
ATOM      2  C   UNL     1     -11.697  15.904  69.397  0.00  0.00    -0.003 A 
ATOM      3  C   UNL     1     -11.208  15.927  68.099  0.00  0.00    +0.014 A 
ATOM      4  C   UNL     1     -11.106  14.742  67.384  0.00  0.00    +0.048 A 
ATOM      5  C   UNL     1     -11.722  13.626  67.906  0.00  0.00    +0.014 A 
ATOM      6  C   UNL     1     -12.109  13.603  69.243  0.00  0.00    -0.003 A 
ENDROOT
BRANCH   1   7
ATOM      7  C   UNL     1     -11.780  14.707  71.499  0.00  0.00    +0.057 C 
BRANCH   7   9
ATOM      8  N   UNL     1     -12.750  15.324  73.573  0.00  0.00    -0.120 NA
ATOM      9  CA  UNL     1     -12.865  15.849  72.060  0.00  0.00    +0.199 C 
BRANCH   9  10
ATOM     10  C   UNL     1     -14.127  14.838  71.767  0.00  0.00    +0.382 C 
ATOM     11  OXT UNL     1     -14.180  13.767  72.639  0.00  0.00    -0.244 OA
ATOM     12  O   UNL     1     -15.173  15.461  71.493  0.00  0.00    -0.244 OA
ENDBRANCH   9  10
ENDBRANCH   7   9
ENDBRANCH   1   7
BRANCH   4  13
ATOM     13  N   UNL     1     -10.127  14.667  66.356  0.00  0.00    -0.305 N 
BRANCH  13  14
ATOM     14  C   UNL     1     -10.578  14.651  64.964  0.00  0.00    +0.108 C 
BRANCH  14  15
ATOM     15  C   UNL     1     -10.574  13.221  64.458  0.00  0.00    +0.116 C 
ATOM     16 CL   UNL     1     -12.057  12.927  63.489  0.00  0.00    -0.112 Cl
ENDBRANCH  14  15
ENDBRANCH  13  14
BRANCH  13  17
ATOM     17  C   UNL     1      -8.783  15.182  66.571  0.00  0.00    +0.108 C 
BRANCH  17  18
ATOM     18  C   UNL     1      -8.022  14.282  67.533  0.00  0.00    +0.116 C 
ATOM     19 CL   UNL     1      -8.242  12.565  67.085  0.00  0.00    -0.112 Cl
ENDBRANCH  17  18
ENDBRANCH  13  17
ENDBRANCH   4  13
TORSDOF 8
ENDMDL
