MODEL 1
REMARK VINA RESULT:      -6.2      0.000      0.000
REMARK  Name = 
REMARK  6 active torsions:
REMARK  status: ('A' for Active; 'I' for Inactive)
REMARK    1  A    between atoms: C_6  and  C_7
REMARK    2  A    between atoms: C_7  and  C_20
REMARK    3  A    between atoms: C_8  and  C_9
REMARK    4  A    between atoms: C_9  and  C_10
REMARK    5  A    between atoms: C_10  and  N_11
REMARK    6  A    between atoms: C_15  and  C_16
REMARK                            x       y       z     vdW  Elec       q    Type
REMARK                         _______ _______ _______ _____ _____    ______ ____
ROOT
ATOM      1  C   UNL     1     -10.122  12.045  67.483  0.00  0.00    +0.007 C 
ATOM      2  C   UNL     1      -8.868  12.365  67.682  0.00  0.00    -0.024 C 
ENDROOT
BRANCH   1   5
ATOM      3  C   UNL     1     -12.380  13.738  66.217  0.00  0.00    +0.032 C 
ATOM      4  C   UNL     1     -11.589  12.779  65.503  0.00  0.00    -0.015 A 
ATOM      5  C   UNL     1     -10.582  12.021  66.088  0.00  0.00    +0.026 A 
ATOM      6  S   UNL     1     -10.209  10.927  64.818  0.00  0.00    -0.087 S 
ATOM      7  C   UNL     1     -11.115  11.672  63.565  0.00  0.00    +0.035 A 
ATOM      8  C   UNL     1     -11.354  12.915  64.140  0.00  0.00    +0.003 A 
ENDBRANCH   1   5
BRANCH   1   9
ATOM      9  C   UNL     1     -10.832  11.311  68.539  0.00  0.00    +0.026 A 
ATOM     10  C   UNL     1     -11.549  11.941  69.550  0.00  0.00    -0.015 A 
ATOM     11  C   UNL     1     -11.806  13.416  69.607  0.00  0.00    +0.032 C 
ATOM     12  C   UNL     1     -12.294  11.043  70.264  0.00  0.00    +0.003 A 
ATOM     13  C   UNL     1     -11.534   9.944  70.648  0.00  0.00    +0.035 A 
ATOM     14  S   UNL     1     -10.502   9.801  69.284  0.00  0.00    -0.087 S 
ENDBRANCH   1   9
BRANCH   2  15
ATOM     15  C   UNL     1      -8.388  13.603  68.328  0.00  0.00    +0.043 C 
BRANCH  15  16
ATOM     16  C   UNL     1      -8.082  14.564  67.191  0.00  0.00    +0.077 C 
BRANCH  16  17
ATOM     17  N   UNL     1      -8.231  15.936  67.541  0.00  0.00    -0.272 NA
ATOM     18  C   UNL     1      -8.714  16.738  66.464  0.00  0.00    +0.083 C 
ATOM     19  C   UNL     1     -10.326  16.448  66.592  0.00  0.00    +0.119 C 
ATOM     20  C   UNL     1     -10.504  17.619  67.728  0.00  0.00    +0.014 C 
ATOM     21  C   UNL     1     -10.033  16.891  68.949  0.00  0.00    +0.018 C 
ATOM     22  C   UNL     1      -8.719  16.221  68.829  0.00  0.00    +0.072 C 
BRANCH  19  23
ATOM     23  C   UNL     1     -10.699  17.429  65.377  0.00  0.00    +0.366 C 
ATOM     24  O   UNL     1     -11.281  16.808  64.281  0.00  0.00    -0.246 OA
ATOM     25  O   UNL     1     -10.618  18.645  65.559  0.00  0.00    -0.246 OA
ENDBRANCH  19  23
ENDBRANCH  16  17
ENDBRANCH  15  16
ENDBRANCH   2  15
TORSDOF 6
ENDMDL
MODEL 2
REMARK VINA RESULT:      -6.2      2.449      4.421
REMARK  Name = 
REMARK  6 active torsions:
REMARK  status: ('A' for Active; 'I' for Inactive)
REMARK    1  A    between atoms: C_6  and  C_7
REMARK    2  A    between atoms: C_7  and  C_20
REMARK    3  A    between atoms: C_8  and  C_9
REMARK    4  A    between atoms: C_9  and  C_10
REMARK    5  A    between atoms: C_10  and  N_11
REMARK    6  A    between atoms: C_15  and  C_16
REMARK                            x       y       z     vdW  Elec       q    Type
REMARK                         _______ _______ _______ _____ _____    ______ ____
ROOT
ATOM      1  C   UNL     1     -12.049  11.676  70.256  0.00  0.00    +0.007 C 
ATOM      2  C   UNL     1     -12.083  11.599  68.950  0.00  0.00    -0.024 C 
ENDROOT
BRANCH   1   5
ATOM      3  C   UNL     1     -10.928  14.501  69.677  0.00  0.00    +0.032 C 
ATOM      4  C   UNL     1     -11.992  14.225  70.598  0.00  0.00    -0.015 A 
ATOM      5  C   UNL     1     -12.480  12.948  70.852  0.00  0.00    +0.026 A 
ATOM      6  S   UNL     1     -13.525  13.250  72.181  0.00  0.00    -0.087 S 
ATOM      7  C   UNL     1     -13.506  14.966  72.136  0.00  0.00    +0.035 A 
ATOM      8  C   UNL     1     -12.971  15.173  70.869  0.00  0.00    +0.003 A 
ENDBRANCH   1   5
BRANCH   1   9
ATOM      9  C   UNL     1     -12.044  10.428  71.031  0.00  0.00    +0.026 A 
ATOM     10  C   UNL     1     -10.981   9.533  71.021  0.00  0.00    -0.015 A 
ATOM     11  C   UNL     1      -9.668   9.792  70.347  0.00  0.00    +0.032 C 
ATOM     12  C   UNL     1     -11.128   8.576  71.987  0.00  0.00    +0.003 A 
ATOM     13  C   UNL     1     -12.398   8.014  71.957  0.00  0.00    +0.035 A 
ATOM     14  S   UNL     1     -13.324   9.388  71.506  0.00  0.00    -0.087 S 
ENDBRANCH   1   9
BRANCH   2  15
ATOM     15  C   UNL     1     -10.906  11.508  68.062  0.00  0.00    +0.043 C 
BRANCH  15  16
ATOM     16  C   UNL     1     -11.363  12.059  66.722  0.00  0.00    +0.077 C 
BRANCH  16  17
ATOM     17  N   UNL     1     -10.328  12.695  65.978  0.00  0.00    -0.272 NA
ATOM     18  C   UNL     1     -10.824  13.535  64.937  0.00  0.00    +0.083 C 
ATOM     19  C   UNL     1     -11.152  14.895  65.798  0.00  0.00    +0.119 C 
ATOM     20  C   UNL     1      -9.601  15.418  65.671  0.00  0.00    +0.014 C 
ATOM     21  C   UNL     1      -8.949  14.606  66.746  0.00  0.00    +0.018 C 
ATOM     22  C   UNL     1      -9.207  13.150  66.697  0.00  0.00    +0.072 C 
BRANCH  19  23
ATOM     23  C   UNL     1     -11.640  15.714  64.505  0.00  0.00    +0.366 C 
ATOM     24  O   UNL     1     -12.684  15.131  63.802  0.00  0.00    -0.246 OA
ATOM     25  O   UNL     1     -11.199  16.851  64.331  0.00  0.00    -0.246 OA
ENDBRANCH  19  23
ENDBRANCH  16  17
ENDBRANCH  15  16
ENDBRANCH   2  15
TORSDOF 6
ENDMDL
MODEL 3
REMARK VINA RESULT:      -5.9      3.414      5.448
REMARK  Name = 
REMARK  6 active torsions:
REMARK  status: ('A' for Active; 'I' for Inactive)
REMARK    1  A    between atoms: C_6  and  C_7
REMARK    2  A    between atoms: C_7  and  C_20
REMARK    3  A    between atoms: C_8  and  C_9
REMARK    4  A    between atoms: C_9  and  C_10
REMARK    5  A    between atoms: C_10  and  N_11
REMARK    6  A    between atoms: C_15  and  C_16
REMARK                            x       y       z     vdW  Elec       q    Type
REMARK                         _______ _______ _______ _____ _____    ______ ____
ROOT
ATOM      1  C   UNL     1      -9.871  12.925  66.593  0.00  0.00    +0.007 C 
ATOM      2  C   UNL     1     -10.331  12.431  67.715  0.00  0.00    -0.024 C 
ENDROOT
BRANCH   1   5
ATOM      3  C   UNL     1     -10.541  15.614  65.217  0.00  0.00    +0.032 C 
ATOM      4  C   UNL     1      -9.415  15.403  66.079  0.00  0.00    -0.015 A 
ATOM      5  C   UNL     1      -9.124  14.186  66.685  0.00  0.00    +0.026 A 
ATOM      6  S   UNL     1      -7.575  14.510  67.352  0.00  0.00    -0.087 S 
ATOM      7  C   UNL     1      -7.531  16.205  67.086  0.00  0.00    +0.035 A 
ATOM      8  C   UNL     1      -8.874  16.447  66.820  0.00  0.00    +0.003 A 
ENDBRANCH   1   5
BRANCH   1   9
ATOM      9  C   UNL     1      -9.716  12.023  65.443  0.00  0.00    +0.026 A 
ATOM     10  C   UNL     1     -10.727  11.790  64.519  0.00  0.00    -0.015 A 
ATOM     11  C   UNL     1     -12.031  12.527  64.494  0.00  0.00    +0.032 C 
ATOM     12  C   UNL     1     -10.261  11.097  63.436  0.00  0.00    +0.003 A 
ATOM     13  C   UNL     1      -9.521   9.986  63.824  0.00  0.00    +0.035 A 
ATOM     14  S   UNL     1      -8.774  10.602  65.242  0.00  0.00    -0.087 S 
ENDBRANCH   1   9
BRANCH   2  15
ATOM     15  C   UNL     1     -11.755  12.334  68.093  0.00  0.00    +0.043 C 
BRANCH  15  16
ATOM     16  C   UNL     1     -11.830  12.822  69.529  0.00  0.00    +0.077 C 
BRANCH  16  17
ATOM     17  N   UNL     1     -12.363  14.136  69.664  0.00  0.00    -0.272 NA
ATOM     18  C   UNL     1     -13.099  14.319  70.873  0.00  0.00    +0.083 C 
ATOM     19  C   UNL     1     -11.866  14.625  71.915  0.00  0.00    +0.119 C 
ATOM     20  C   UNL     1     -11.853  16.218  71.519  0.00  0.00    +0.014 C 
ATOM     21  C   UNL     1     -11.078  16.175  70.239  0.00  0.00    +0.018 C 
ATOM     22  C   UNL     1     -11.557  15.204  69.231  0.00  0.00    +0.072 C 
BRANCH  19  23
ATOM     23  C   UNL     1     -12.848  14.842  73.168  0.00  0.00    +0.366 C 
ATOM     24  O   UNL     1     -12.316  15.597  74.204  0.00  0.00    -0.246 OA
ATOM     25  O   UNL     1     -14.024  14.496  73.058  0.00  0.00    -0.246 OA
ENDBRANCH  19  23
ENDBRANCH  16  17
ENDBRANCH  15  16
ENDBRANCH   2  15
TORSDOF 6
ENDMDL
MODEL 4
REMARK VINA RESULT:      -5.8      3.869      6.770
REMARK  Name = 
REMARK  6 active torsions:
REMARK  status: ('A' for Active; 'I' for Inactive)
REMARK    1  A    between atoms: C_6  and  C_7
REMARK    2  A    between atoms: C_7  and  C_20
REMARK    3  A    between atoms: C_8  and  C_9
REMARK    4  A    between atoms: C_9  and  C_10
REMARK    5  A    between atoms: C_10  and  N_11
REMARK    6  A    between atoms: C_15  and  C_16
REMARK                            x       y       z     vdW  Elec       q    Type
REMARK                         _______ _______ _______ _____ _____    ______ ____
ROOT
ATOM      1  C   UNL     1      -7.171  17.721  68.331  0.00  0.00    +0.007 C 
ATOM      2  C   UNL     1      -7.573  16.561  68.786  0.00  0.00    -0.024 C 
ENDROOT
BRANCH   1   5
ATOM      3  C   UNL     1      -7.158  19.288  65.663  0.00  0.00    +0.032 C 
ATOM      4  C   UNL     1      -8.224  19.328  66.621  0.00  0.00    -0.015 A 
ATOM      5  C   UNL     1      -8.212  18.623  67.819  0.00  0.00    +0.026 A 
ATOM      6  S   UNL     1      -9.598  19.270  68.600  0.00  0.00    -0.087 S 
ATOM      7  C   UNL     1     -10.252  20.145  67.275  0.00  0.00    +0.035 A 
ATOM      8  C   UNL     1      -9.533  19.579  66.228  0.00  0.00    +0.003 A 
ENDBRANCH   1   5
BRANCH   1   9
ATOM      9  C   UNL     1      -5.861  18.226  68.761  0.00  0.00    +0.026 A 
ATOM     10  C   UNL     1      -4.675  17.913  68.107  0.00  0.00    -0.015 A 
ATOM     11  C   UNL     1      -4.599  17.153  66.818  0.00  0.00    +0.032 C 
ATOM     12  C   UNL     1      -3.639  18.680  68.562  0.00  0.00    +0.003 A 
ATOM     13  C   UNL     1      -3.586  18.691  69.951  0.00  0.00    +0.035 A 
ATOM     14  S   UNL     1      -5.262  18.634  70.317  0.00  0.00    -0.087 S 
ENDBRANCH   1   9
BRANCH   2  15
ATOM     15  C   UNL     1      -7.297  15.250  68.165  0.00  0.00    +0.043 C 
BRANCH  15  16
ATOM     16  C   UNL     1      -8.290  15.124  67.022  0.00  0.00    +0.077 C 
BRANCH  16  17
ATOM     17  N   UNL     1      -9.651  15.225  67.428  0.00  0.00    -0.272 NA
ATOM     18  C   UNL     1     -10.472  15.890  66.468  0.00  0.00    +0.083 C 
ATOM     19  C   UNL     1     -10.786  14.642  65.447  0.00  0.00    +0.119 C 
ATOM     20  C   UNL     1     -12.041  14.127  66.371  0.00  0.00    +0.014 C 
ATOM     21  C   UNL     1     -11.306  13.381  67.440  0.00  0.00    +0.018 C 
ATOM     22  C   UNL     1     -10.205  14.119  68.098  0.00  0.00    +0.072 C 
BRANCH  19  23
ATOM     23  C   UNL     1     -11.722  15.530  64.491  0.00  0.00    +0.366 C 
ATOM     24  O   UNL     1     -11.277  16.827  64.276  0.00  0.00    -0.246 OA
ATOM     25  O   UNL     1     -12.640  14.973  63.888  0.00  0.00    -0.246 OA
ENDBRANCH  19  23
ENDBRANCH  16  17
ENDBRANCH  15  16
ENDBRANCH   2  15
TORSDOF 6
ENDMDL
MODEL 5
REMARK VINA RESULT:      -5.8      3.109      5.364
REMARK  Name = 
REMARK  6 active torsions:
REMARK  status: ('A' for Active; 'I' for Inactive)
REMARK    1  A    between atoms: C_6  and  C_7
REMARK    2  A    between atoms: C_7  and  C_20
REMARK    3  A    between atoms: C_8  and  C_9
REMARK    4  A    between atoms: C_9  and  C_10
REMARK    5  A    between atoms: C_10  and  N_11
REMARK    6  A    between atoms: C_15  and  C_16
REMARK                            x       y       z     vdW  Elec       q    Type
REMARK                         _______ _______ _______ _____ _____    ______ ____
ROOT
ATOM      1  C   UNL     1     -10.389  12.422  65.848  0.00  0.00    +0.007 C 
ATOM      2  C   UNL     1     -11.507  12.085  66.439  0.00  0.00    -0.024 C 
ENDROOT
BRANCH   1   5
ATOM      3  C   UNL     1      -8.305  10.169  66.236  0.00  0.00    +0.032 C 
ATOM      4  C   UNL     1      -8.946  10.473  64.990  0.00  0.00    -0.015 A 
ATOM      5  C   UNL     1      -9.876  11.494  64.830  0.00  0.00    +0.026 A 
ATOM      6  S   UNL     1     -10.065  11.507  63.124  0.00  0.00    -0.087 S 
ATOM      7  C   UNL     1      -9.208  10.064  62.760  0.00  0.00    +0.035 A 
ATOM      8  C   UNL     1      -9.143   9.492  64.026  0.00  0.00    +0.003 A 
ENDBRANCH   1   5
BRANCH   1   9
ATOM      9  C   UNL     1      -9.980  13.833  65.875  0.00  0.00    +0.026 A 
ATOM     10  C   UNL     1      -9.038  14.333  66.766  0.00  0.00    -0.015 A 
ATOM     11  C   UNL     1      -8.226  13.486  67.697  0.00  0.00    +0.032 C 
ATOM     12  C   UNL     1      -8.675  15.611  66.440  0.00  0.00    +0.003 A 
ATOM     13  C   UNL     1      -9.787  16.413  66.214  0.00  0.00    +0.035 A 
ATOM     14  S   UNL     1     -10.845  15.267  65.496  0.00  0.00    -0.087 S 
ENDBRANCH   1   9
BRANCH   2  15
ATOM     15  C   UNL     1     -11.647  11.695  67.856  0.00  0.00    +0.043 C 
BRANCH  15  16
ATOM     16  C   UNL     1     -11.877  12.991  68.615  0.00  0.00    +0.077 C 
BRANCH  16  17
ATOM     17  N   UNL     1     -11.648  12.887  70.017  0.00  0.00    -0.272 NA
ATOM     18  C   UNL     1     -11.795  14.130  70.701  0.00  0.00    +0.083 C 
ATOM     19  C   UNL     1     -13.427  14.162  70.889  0.00  0.00    +0.119 C 
ATOM     20  C   UNL     1     -13.344  13.260  72.257  0.00  0.00    +0.014 C 
ATOM     21  C   UNL     1     -13.198  11.889  71.673  0.00  0.00    +0.018 C 
ATOM     22  C   UNL     1     -12.129  11.733  70.662  0.00  0.00    +0.072 C 
BRANCH  19  23
ATOM     23  C   UNL     1     -13.407  15.556  71.687  0.00  0.00    +0.366 C 
ATOM     24  O   UNL     1     -14.620  15.925  72.250  0.00  0.00    -0.246 OA
ATOM     25  O   UNL     1     -12.320  16.096  71.896  0.00  0.00    -0.246 OA
ENDBRANCH  19  23
ENDBRANCH  16  17
ENDBRANCH  15  16
ENDBRANCH   2  15
TORSDOF 6
ENDMDL
MODEL 6
REMARK VINA RESULT:      -5.8      4.636      7.358
REMARK  Name = 
REMARK  6 active torsions:
REMARK  status: ('A' for Active; 'I' for Inactive)
REMARK    1  A    between atoms: C_6  and  C_7
REMARK    2  A    between atoms: C_7  and  C_20
REMARK    3  A    between atoms: C_8  and  C_9
REMARK    4  A    between atoms: C_9  and  C_10
REMARK    5  A    between atoms: C_10  and  N_11
REMARK    6  A    between atoms: C_15  and  C_16
REMARK                            x       y       z     vdW  Elec       q    Type
REMARK                         _______ _______ _______ _____ _____    ______ ____
ROOT
ATOM      1  C   UNL     1     -11.615  12.890  68.370  0.00  0.00    +0.007 C 
ATOM      2  C   UNL     1     -12.054  11.773  68.893  0.00  0.00    -0.024 C 
ENDROOT
BRANCH   1   5
ATOM      3  C   UNL     1      -9.375  11.721  66.585  0.00  0.00    +0.032 C 
ATOM      4  C   UNL     1     -10.527  12.414  66.088  0.00  0.00    -0.015 A 
ATOM      5  C   UNL     1     -11.523  12.940  66.904  0.00  0.00    +0.026 A 
ATOM      6  S   UNL     1     -12.450  13.830  65.766  0.00  0.00    -0.087 S 
ATOM      7  C   UNL     1     -11.712  13.251  64.327  0.00  0.00    +0.035 A 
ATOM      8  C   UNL     1     -11.039  12.142  64.826  0.00  0.00    +0.003 A 
ENDBRANCH   1   5
BRANCH   1   9
ATOM      9  C   UNL     1     -11.688  14.116  69.176  0.00  0.00    +0.026 A 
ATOM     10  C   UNL     1     -10.604  14.967  69.363  0.00  0.00    -0.015 A 
ATOM     11  C   UNL     1      -9.290  14.823  68.659  0.00  0.00    +0.032 C 
ATOM     12  C   UNL     1     -10.988  16.136  69.958  0.00  0.00    +0.003 A 
ATOM     13  C   UNL     1     -11.779  15.902  71.076  0.00  0.00    +0.035 A 
ATOM     14  S   UNL     1     -12.634  14.508  70.553  0.00  0.00    -0.087 S 
ENDBRANCH   1   9
BRANCH   2  15
ATOM     15  C   UNL     1     -11.255  10.827  69.697  0.00  0.00    +0.043 C 
BRANCH  15  16
ATOM     16  C   UNL     1     -12.034  10.629  70.986  0.00  0.00    +0.077 C 
BRANCH  16  17
ATOM     17  N   UNL     1     -11.702   9.430  71.681  0.00  0.00    -0.272 NA
ATOM     18  C   UNL     1     -12.824   8.830  72.326  0.00  0.00    +0.083 C 
ATOM     19  C   UNL     1     -13.479   8.012  71.061  0.00  0.00    +0.119 C 
ATOM     20  C   UNL     1     -12.480   6.731  71.300  0.00  0.00    +0.014 C 
ATOM     21  C   UNL     1     -11.232   7.230  70.641  0.00  0.00    +0.018 C 
ATOM     22  C   UNL     1     -10.772   8.570  71.069  0.00  0.00    +0.072 C 
BRANCH  19  23
ATOM     23  C   UNL     1     -14.660   7.384  71.950  0.00  0.00    +0.366 C 
ATOM     24  O   UNL     1     -15.716   8.246  72.211  0.00  0.00    -0.246 OA
ATOM     25  O   UNL     1     -14.642   6.175  72.179  0.00  0.00    -0.246 OA
ENDBRANCH  19  23
ENDBRANCH  16  17
ENDBRANCH  15  16
ENDBRANCH   2  15
TORSDOF 6
ENDMDL
MODEL 7
REMARK VINA RESULT:      -5.8      3.980      7.286
REMARK  Name = 
REMARK  6 active torsions:
REMARK  status: ('A' for Active; 'I' for Inactive)
REMARK    1  A    between atoms: C_6  and  C_7
REMARK    2  A    between atoms: C_7  and  C_20
REMARK    3  A    between atoms: C_8  and  C_9
REMARK    4  A    between atoms: C_9  and  C_10
REMARK    5  A    between atoms: C_10  and  N_11
REMARK    6  A    between atoms: C_15  and  C_16
REMARK                            x       y       z     vdW  Elec       q    Type
REMARK                         _______ _______ _______ _____ _____    ______ ____
ROOT
ATOM      1  C   UNL     1      -7.048  18.395  68.288  0.00  0.00    +0.007 C 
ATOM      2  C   UNL     1      -6.611  17.324  67.674  0.00  0.00    -0.024 C 
ENDROOT
BRANCH   1   5
ATOM      3  C   UNL     1      -5.455  20.967  67.641  0.00  0.00    +0.032 C 
ATOM      4  C   UNL     1      -5.371  20.252  68.882  0.00  0.00    -0.015 A 
ATOM      5  C   UNL     1      -6.089  19.093  69.154  0.00  0.00    +0.026 A 
ATOM      6  S   UNL     1      -5.381  18.607  70.641  0.00  0.00    -0.087 S 
ATOM      7  C   UNL     1      -4.460  20.020  70.961  0.00  0.00    +0.035 A 
ATOM      8  C   UNL     1      -5.050  20.905  70.065  0.00  0.00    +0.003 A 
ENDBRANCH   1   5
BRANCH   1   9
ATOM      9  C   UNL     1      -8.234  19.075  67.751  0.00  0.00    +0.026 A 
ATOM     10  C   UNL     1      -9.512  18.890  68.266  0.00  0.00    -0.015 A 
ATOM     11  C   UNL     1      -9.816  18.104  69.504  0.00  0.00    +0.032 C 
ATOM     12  C   UNL     1     -10.393  19.796  67.744  0.00  0.00    +0.003 A 
ATOM     13  C   UNL     1     -10.297  19.860  66.359  0.00  0.00    +0.035 A 
ATOM     14  S   UNL     1      -8.610  19.605  66.163  0.00  0.00    -0.087 S 
ENDBRANCH   1   9
BRANCH   2  15
ATOM     15  C   UNL     1      -7.048  15.939  67.945  0.00  0.00    +0.043 C 
BRANCH  15  16
ATOM     16  C   UNL     1      -7.989  15.579  66.807  0.00  0.00    +0.077 C 
BRANCH  16  17
ATOM     17  N   UNL     1      -9.339  15.382  67.217  0.00  0.00    -0.272 NA
ATOM     18  C   UNL     1     -10.282  16.005  66.347  0.00  0.00    +0.083 C 
ATOM     19  C   UNL     1     -10.388  14.861  65.173  0.00  0.00    +0.119 C 
ATOM     20  C   UNL     1     -11.514  14.017  66.018  0.00  0.00    +0.014 C 
ATOM     21  C   UNL     1     -10.638  13.285  66.986  0.00  0.00    +0.018 C 
ATOM     22  C   UNL     1      -9.675  14.120  67.738  0.00  0.00    +0.072 C 
BRANCH  19  23
ATOM     23  C   UNL     1     -11.485  15.681  64.335  0.00  0.00    +0.366 C 
ATOM     24  O   UNL     1     -12.605  14.949  63.963  0.00  0.00    -0.246 OA
ATOM     25  O   UNL     1     -11.356  16.901  64.236  0.00  0.00    -0.246 OA
ENDBRANCH  19  23
ENDBRANCH  16  17
ENDBRANCH  15  16
ENDBRANCH   2  15
TORSDOF 6
ENDMDL
MODEL 8
REMARK VINA RESULT:      -5.7      1.227      1.433
REMARK  Name = 
REMARK  6 active torsions:
REMARK  status: ('A' for Active; 'I' for Inactive)
REMARK    1  A    between atoms: C_6  and  C_7
REMARK    2  A    between atoms: C_7  and  C_20
REMARK    3  A    between atoms: C_8  and  C_9
REMARK    4  A    between atoms: C_9  and  C_10
REMARK    5  A    between atoms: C_10  and  N_11
REMARK    6  A    between atoms: C_15  and  C_16
REMARK                            x       y       z     vdW  Elec       q    Type
REMARK                         _______ _______ _______ _____ _____    ______ ____
ROOT
ATOM      1  C   UNL     1      -9.810  11.745  66.700  0.00  0.00    +0.007 C 
ATOM      2  C   UNL     1      -8.735  12.483  66.819  0.00  0.00    -0.024 C 
ENDROOT
BRANCH   1   5
ATOM      3  C   UNL     1     -12.304  13.574  66.765  0.00  0.00    +0.032 C 
ATOM      4  C   UNL     1     -11.830  12.892  65.596  0.00  0.00    -0.015 A 
ATOM      5  C   UNL     1     -10.711  12.067  65.585  0.00  0.00    +0.026 A 
ATOM      6  S   UNL     1     -10.821  11.379  64.016  0.00  0.00    -0.087 S 
ATOM      7  C   UNL     1     -12.069  12.376  63.386  0.00  0.00    +0.035 A 
ATOM      8  C   UNL     1     -12.060  13.402  64.325  0.00  0.00    +0.003 A 
ENDBRANCH   1   5
BRANCH   1   9
ATOM      9  C   UNL     1      -9.825  10.423  67.342  0.00  0.00    +0.026 A 
ATOM     10  C   UNL     1     -10.461  10.175  68.552  0.00  0.00    -0.015 A 
ATOM     11  C   UNL     1     -11.321  11.168  69.271  0.00  0.00    +0.032 C 
ATOM     12  C   UNL     1     -10.520   8.834  68.817  0.00  0.00    +0.003 A 
ATOM     13  C   UNL     1      -9.282   8.227  68.642  0.00  0.00    +0.035 A 
ATOM     14  S   UNL     1      -8.680   9.144  67.321  0.00  0.00    -0.087 S 
ENDBRANCH   1   9
BRANCH   2  15
ATOM     15  C   UNL     1      -8.465  13.440  67.910  0.00  0.00    +0.043 C 
BRANCH  15  16
ATOM     16  C   UNL     1      -7.812  14.641  67.248  0.00  0.00    +0.077 C 
BRANCH  16  17
ATOM     17  N   UNL     1      -8.176  15.889  67.829  0.00  0.00    -0.272 NA
ATOM     18  C   UNL     1      -8.636  16.839  66.870  0.00  0.00    +0.083 C 
ATOM     19  C   UNL     1     -10.201  16.361  66.720  0.00  0.00    +0.119 C 
ATOM     20  C   UNL     1     -10.656  17.248  68.024  0.00  0.00    +0.014 C 
ATOM     21  C   UNL     1     -10.233  16.339  69.135  0.00  0.00    +0.018 C 
ATOM     22  C   UNL     1      -8.839  15.851  69.070  0.00  0.00    +0.072 C 
BRANCH  19  23
ATOM     23  C   UNL     1     -10.561  17.526  65.675  0.00  0.00    +0.366 C 
ATOM     24  O   UNL     1     -11.136  17.091  64.489  0.00  0.00    -0.246 OA
ATOM     25  O   UNL     1     -10.477  18.696  66.050  0.00  0.00    -0.246 OA
ENDBRANCH  19  23
ENDBRANCH  16  17
ENDBRANCH  15  16
ENDBRANCH   2  15
TORSDOF 6
ENDMDL
MODEL 9
REMARK VINA RESULT:      -5.7      1.263      1.697
REMARK  Name = 
REMARK  6 active torsions:
REMARK  status: ('A' for Active; 'I' for Inactive)
REMARK    1  A    between atoms: C_6  and  C_7
REMARK    2  A    between atoms: C_7  and  C_20
REMARK    3  A    between atoms: C_8  and  C_9
REMARK    4  A    between atoms: C_9  and  C_10
REMARK    5  A    between atoms: C_10  and  N_11
REMARK    6  A    between atoms: C_15  and  C_16
REMARK                            x       y       z     vdW  Elec       q    Type
REMARK                         _______ _______ _______ _____ _____    ______ ____
ROOT
ATOM      1  C   UNL     1     -10.197  12.263  67.344  0.00  0.00    +0.007 C 
ATOM      2  C   UNL     1      -9.007  12.784  67.509  0.00  0.00    -0.024 C 
ENDROOT
BRANCH   1   5
ATOM      3  C   UNL     1     -12.441  13.838  65.909  0.00  0.00    +0.032 C 
ATOM      4  C   UNL     1     -11.659  12.803  65.297  0.00  0.00    -0.015 A 
ATOM      5  C   UNL     1     -10.658  12.100  65.958  0.00  0.00    +0.026 A 
ATOM      6  S   UNL     1     -10.295  10.878  64.808  0.00  0.00    -0.087 S 
ATOM      7  C   UNL     1     -11.195  11.498  63.484  0.00  0.00    +0.035 A 
ATOM      8  C   UNL     1     -11.423  12.796  63.928  0.00  0.00    +0.003 A 
ENDBRANCH   1   5
BRANCH   1   9
ATOM      9  C   UNL     1     -10.777  11.479  68.443  0.00  0.00    +0.026 A 
ATOM     10  C   UNL     1     -11.542  12.044  69.456  0.00  0.00    -0.015 A 
ATOM     11  C   UNL     1     -11.989  13.474  69.477  0.00  0.00    +0.032 C 
ATOM     12  C   UNL     1     -12.143  11.082  70.220  0.00  0.00    +0.003 A 
ATOM     13  C   UNL     1     -11.236  10.106  70.613  0.00  0.00    +0.035 A 
ATOM     14  S   UNL     1     -10.230  10.051  69.223  0.00  0.00    -0.087 S 
ENDBRANCH   1   9
BRANCH   2  15
ATOM     15  C   UNL     1      -8.723  14.112  68.089  0.00  0.00    +0.043 C 
BRANCH  15  16
ATOM     16  C   UNL     1      -9.055  15.114  66.996  0.00  0.00    +0.077 C 
BRANCH  16  17
ATOM     17  N   UNL     1      -8.144  16.206  66.920  0.00  0.00    -0.272 NA
ATOM     18  C   UNL     1      -8.788  17.452  66.657  0.00  0.00    +0.083 C 
ATOM     19  C   UNL     1      -9.268  17.853  68.176  0.00  0.00    +0.119 C 
ATOM     20  C   UNL     1      -7.809  18.521  68.522  0.00  0.00    +0.014 C 
ATOM     21  C   UNL     1      -7.014  17.293  68.839  0.00  0.00    +0.018 C 
ATOM     22  C   UNL     1      -7.071  16.212  67.830  0.00  0.00    +0.072 C 
BRANCH  19  23
ATOM     23  C   UNL     1      -9.909  19.250  67.711  0.00  0.00    +0.366 C 
ATOM     24  O   UNL     1      -8.992  20.266  67.477  0.00  0.00    -0.246 OA
ATOM     25  O   UNL     1     -11.107  19.280  67.427  0.00  0.00    -0.246 OA
ENDBRANCH  19  23
ENDBRANCH  16  17
ENDBRANCH  15  16
ENDBRANCH   2  15
TORSDOF 6
ENDMDL
