MODEL 1
REMARK VINA RESULT:      -6.1      0.000      0.000
REMARK  Name = 
REMARK  16 active torsions:
REMARK  status: ('A' for Active; 'I' for Inactive)
REMARK    1  A    between atoms: C_2  and  C_3
REMARK    2  A    between atoms: C_5  and  C_6
REMARK    3  A    between atoms: C_6  and  C_8
REMARK    4  A    between atoms: C_8  and  N_9
REMARK    5  A    between atoms: N_9  and  C_10
REMARK    6  A    between atoms: C_10  and  C_11
REMARK    7  A    between atoms: C_11  and  C_12
REMARK    8  A    between atoms: C_12  and  C_13
REMARK    9  A    between atoms: C_13  and  C_14
REMARK   10  A    between atoms: C_14  and  C_15
REMARK   11  A    between atoms: C_15  and  O_16
REMARK   12  A    between atoms: O_16  and  C_17
REMARK   13  A    between atoms: C_17  and  C_18
REMARK   14  A    between atoms: C_18  and  O_19
REMARK   15  A    between atoms: O_19  and  C_20
REMARK   16  A    between atoms: C_20  and  C_21
REMARK                            x       y       z     vdW  Elec       q    Type
REMARK                         _______ _______ _______ _____ _____    ______ ____
ROOT
ATOM      1  C   UNL     1      -8.759   9.120  66.091  0.00  0.00    +0.002 C 
ENDROOT
BRANCH   1   2
ATOM      2  C   UNL     1      -9.508   9.556  64.859  0.00  0.00    +0.019 C 
BRANCH   2   3
ATOM      3  C   UNL     1      -9.361  11.062  64.681  0.00  0.00    +0.089 C 
BRANCH   3   4
ATOM      4  N   UNL     1     -10.522  11.508  63.927  0.00  0.00    -0.215 NA
BRANCH   4   5
ATOM      5  C   UNL     1     -10.741  12.896  64.265  0.00  0.00    +0.126 C 
BRANCH   5   6
ATOM      6  C   UNL     1     -12.324  12.980  64.732  0.00  0.00    +0.192 C 
ATOM      7  O   UNL     1     -12.624  14.042  63.686  0.00  0.00    -0.217 OA
BRANCH   6  13
ATOM      8  C   UNL     1     -10.598  15.910  66.442  0.00  0.00    +0.049 A 
ATOM      9  C   UNL     1     -11.079  15.821  67.742  0.00  0.00    +0.194 A 
ATOM     10  O   UNL     1     -11.131  16.944  68.575  0.00  0.00    -0.287 OA
ATOM     11  C   UNL     1     -11.663  14.612  68.106  0.00  0.00    +0.042 A 
ATOM     12  C   UNL     1     -12.051  13.685  67.145  0.00  0.00    +0.001 A 
ATOM     13  C   UNL     1     -11.985  14.102  65.847  0.00  0.00    +0.009 A 
ATOM     14  C   UNL     1     -10.929  14.937  65.506  0.00  0.00    -0.000 A 
BRANCH   8  16
ATOM     15  O   UNL     1     -10.316  17.676  65.761  0.00  0.00    -0.215 OA
ATOM     16  C   UNL     1     -10.258  17.296  65.985  0.00  0.00    +0.212 C 
ENDBRANCH   8  16
ENDBRANCH   6  13
ENDBRANCH   5   6
ENDBRANCH   4   5
ENDBRANCH   3   4
ENDBRANCH   2   3
ENDBRANCH   1   2
BRANCH   1  17
ATOM     17  C   UNL     1      -9.131   7.726  66.518  0.00  0.00    +0.003 C 
BRANCH  17  18
ATOM     18  C   UNL     1     -10.520   7.754  67.144  0.00  0.00    +0.032 C 
BRANCH  18  19
ATOM     19  C   UNL     1     -10.946   6.337  67.421  0.00  0.00    +0.142 C 
BRANCH  19  20
ATOM     20  O   UNL     1     -11.365   6.190  68.735  0.00  0.00    -0.351 OA
BRANCH  20  21
ATOM     21  C   UNL     1     -10.434   5.493  69.517  0.00  0.00    +0.174 C 
BRANCH  21  22
ATOM     22  C   UNL     1     -10.759   5.732  70.969  0.00  0.00    +0.175 C 
BRANCH  22  23
ATOM     23  O   UNL     1     -11.805   6.655  71.102  0.00  0.00    -0.346 OA
BRANCH  23  24
ATOM     24  C   UNL     1     -11.406   7.646  72.004  0.00  0.00    +0.170 C 
BRANCH  24  25
ATOM     25  C   UNL     1     -11.586   8.976  71.366  0.00  0.00    +0.028 A 
ATOM     26  C   UNL     1     -12.730   9.713  71.614  0.00  0.00    +0.057 A 
ATOM     27 CL   UNL     1     -14.044   9.039  72.556  0.00  0.00    -0.082 Cl
ATOM     28  C   UNL     1     -12.794  11.000  71.094  0.00  0.00    +0.011 A 
ATOM     29  C   UNL     1     -11.895  11.365  70.100  0.00  0.00    +0.002 A 
ATOM     30  C   UNL     1     -10.871  10.503  69.728  0.00  0.00    +0.011 A 
ATOM     31  C   UNL     1     -10.548   9.466  70.586  0.00  0.00    +0.057 A 
ATOM     32 CL   UNL     1      -8.889   8.933  70.822  0.00  0.00    -0.082 Cl
ENDBRANCH  24  25
ENDBRANCH  23  24
ENDBRANCH  22  23
ENDBRANCH  21  22
ENDBRANCH  20  21
ENDBRANCH  19  20
ENDBRANCH  18  19
ENDBRANCH  17  18
ENDBRANCH   1  17
TORSDOF 16
ENDMDL
MODEL 2
REMARK VINA RESULT:      -5.9      2.375      3.606
REMARK  Name = 
REMARK  16 active torsions:
REMARK  status: ('A' for Active; 'I' for Inactive)
REMARK    1  A    between atoms: C_2  and  C_3
REMARK    2  A    between atoms: C_5  and  C_6
REMARK    3  A    between atoms: C_6  and  C_8
REMARK    4  A    between atoms: C_8  and  N_9
REMARK    5  A    between atoms: N_9  and  C_10
REMARK    6  A    between atoms: C_10  and  C_11
REMARK    7  A    between atoms: C_11  and  C_12
REMARK    8  A    between atoms: C_12  and  C_13
REMARK    9  A    between atoms: C_13  and  C_14
REMARK   10  A    between atoms: C_14  and  C_15
REMARK   11  A    between atoms: C_15  and  O_16
REMARK   12  A    between atoms: O_16  and  C_17
REMARK   13  A    between atoms: C_17  and  C_18
REMARK   14  A    between atoms: C_18  and  O_19
REMARK   15  A    between atoms: O_19  and  C_20
REMARK   16  A    between atoms: C_20  and  C_21
REMARK                            x       y       z     vdW  Elec       q    Type
REMARK                         _______ _______ _______ _____ _____    ______ ____
ROOT
ATOM      1  C   UNL     1      -9.858  10.889  65.997  0.00  0.00    +0.002 C 
ENDROOT
BRANCH   1   2
ATOM      2  C   UNL     1     -11.186  11.355  66.533  0.00  0.00    +0.019 C 
BRANCH   2   3
ATOM      3  C   UNL     1     -11.206  12.878  66.588  0.00  0.00    +0.089 C 
BRANCH   3   4
ATOM      4  N   UNL     1      -9.925  13.293  67.134  0.00  0.00    -0.215 NA
BRANCH   4   5
ATOM      5  C   UNL     1     -10.197  14.021  68.353  0.00  0.00    +0.126 C 
BRANCH   5   6
ATOM      6  C   UNL     1     -11.687  14.698  68.126  0.00  0.00    +0.192 C 
ATOM      7  O   UNL     1     -11.082  16.082  67.948  0.00  0.00    -0.217 OA
BRANCH   6  13
ATOM      8  C   UNL     1     -13.366  14.853  71.539  0.00  0.00    +0.049 A 
ATOM      9  C   UNL     1     -12.448  15.579  72.288  0.00  0.00    +0.194 A 
ATOM     10  O   UNL     1     -12.386  15.451  73.681  0.00  0.00    -0.287 OA
ATOM     11  C   UNL     1     -11.492  16.294  71.576  0.00  0.00    +0.042 A 
ATOM     12  C   UNL     1     -11.253  16.030  70.232  0.00  0.00    +0.001 A 
ATOM     13  C   UNL     1     -11.876  14.930  69.716  0.00  0.00    +0.009 A 
ATOM     14  C   UNL     1     -13.157  14.657  70.178  0.00  0.00    -0.000 A 
BRANCH   8  16
ATOM     15  O   UNL     1     -14.251  13.537  72.609  0.00  0.00    -0.215 OA
ATOM     16  C   UNL     1     -14.180  13.865  72.317  0.00  0.00    +0.212 C 
ENDBRANCH   8  16
ENDBRANCH   6  13
ENDBRANCH   5   6
ENDBRANCH   4   5
ENDBRANCH   3   4
ENDBRANCH   2   3
ENDBRANCH   1   2
BRANCH   1  17
ATOM     17  C   UNL     1      -9.819   9.397  65.797  0.00  0.00    +0.003 C 
BRANCH  17  18
ATOM     18  C   UNL     1     -10.415   8.718  67.023  0.00  0.00    +0.032 C 
BRANCH  18  19
ATOM     19  C   UNL     1     -10.442   7.232  66.777  0.00  0.00    +0.142 C 
BRANCH  19  20
ATOM     20  O   UNL     1     -11.040   6.563  67.834  0.00  0.00    -0.351 OA
BRANCH  20  21
ATOM     21  C   UNL     1     -10.108   5.886  68.633  0.00  0.00    +0.174 C 
BRANCH  21  22
ATOM     22  C   UNL     1     -10.751   5.586  69.963  0.00  0.00    +0.175 C 
BRANCH  22  23
ATOM     23  O   UNL     1     -11.868   6.406  70.174  0.00  0.00    -0.346 OA
BRANCH  23  24
ATOM     24  C   UNL     1     -11.693   7.087  71.383  0.00  0.00    +0.170 C 
BRANCH  24  25
ATOM     25  C   UNL     1     -11.854   8.543  71.140  0.00  0.00    +0.028 A 
ATOM     26  C   UNL     1     -13.043   9.171  71.466  0.00  0.00    +0.057 A 
ATOM     27 CL   UNL     1     -14.421   8.246  72.025  0.00  0.00    -0.082 Cl
ATOM     28  C   UNL     1     -13.100  10.554  71.335  0.00  0.00    +0.011 A 
ATOM     29  C   UNL     1     -12.118  11.196  70.592  0.00  0.00    +0.002 A 
ATOM     30  C   UNL     1     -11.031  10.484  70.100  0.00  0.00    +0.011 A 
ATOM     31  C   UNL     1     -10.760   9.244  70.651  0.00  0.00    +0.057 A 
ATOM     32 CL   UNL     1      -9.116   8.673  70.901  0.00  0.00    -0.082 Cl
ENDBRANCH  24  25
ENDBRANCH  23  24
ENDBRANCH  22  23
ENDBRANCH  21  22
ENDBRANCH  20  21
ENDBRANCH  19  20
ENDBRANCH  18  19
ENDBRANCH  17  18
ENDBRANCH   1  17
TORSDOF 16
ENDMDL
MODEL 3
REMARK VINA RESULT:      -5.9      1.296      2.232
REMARK  Name = 
REMARK  16 active torsions:
REMARK  status: ('A' for Active; 'I' for Inactive)
REMARK    1  A    between atoms: C_2  and  C_3
REMARK    2  A    between atoms: C_5  and  C_6
REMARK    3  A    between atoms: C_6  and  C_8
REMARK    4  A    between atoms: C_8  and  N_9
REMARK    5  A    between atoms: N_9  and  C_10
REMARK    6  A    between atoms: C_10  and  C_11
REMARK    7  A    between atoms: C_11  and  C_12
REMARK    8  A    between atoms: C_12  and  C_13
REMARK    9  A    between atoms: C_13  and  C_14
REMARK   10  A    between atoms: C_14  and  C_15
REMARK   11  A    between atoms: C_15  and  O_16
REMARK   12  A    between atoms: O_16  and  C_17
REMARK   13  A    between atoms: C_17  and  C_18
REMARK   14  A    between atoms: C_18  and  O_19
REMARK   15  A    between atoms: O_19  and  C_20
REMARK   16  A    between atoms: C_20  and  C_21
REMARK                            x       y       z     vdW  Elec       q    Type
REMARK                         _______ _______ _______ _____ _____    ______ ____
ROOT
ATOM      1  C   UNL     1      -8.828   9.288  65.257  0.00  0.00    +0.002 C 
ENDROOT
BRANCH   1   2
ATOM      2  C   UNL     1     -10.124   9.958  64.884  0.00  0.00    +0.019 C 
BRANCH   2   3
ATOM      3  C   UNL     1      -9.899  10.869  63.683  0.00  0.00    +0.089 C 
BRANCH   3   4
ATOM      4  N   UNL     1     -11.131  11.616  63.489  0.00  0.00    -0.215 NA
BRANCH   4   5
ATOM      5  C   UNL     1     -11.032  12.816  64.289  0.00  0.00    +0.126 C 
BRANCH   5   6
ATOM      6  C   UNL     1     -12.238  12.685  65.411  0.00  0.00    +0.192 C 
ATOM      7  O   UNL     1     -12.844  14.011  64.982  0.00  0.00    -0.217 OA
BRANCH   6  13
ATOM      8  C   UNL     1     -11.098  15.270  67.963  0.00  0.00    +0.049 A 
ATOM      9  C   UNL     1      -9.777  14.903  68.187  0.00  0.00    +0.194 A 
ATOM     10  O   UNL     1      -9.128  15.226  69.384  0.00  0.00    -0.287 OA
ATOM     11  C   UNL     1      -9.199  14.058  67.246  0.00  0.00    +0.042 A 
ATOM     12  C   UNL     1      -9.981  13.354  66.338  0.00  0.00    +0.001 A 
ATOM     13  C   UNL     1     -11.330  13.407  66.539  0.00  0.00    +0.009 A 
ATOM     14  C   UNL     1     -11.852  14.610  66.998  0.00  0.00    -0.000 A 
BRANCH   8  16
ATOM     15  O   UNL     1     -12.094  16.162  69.331  0.00  0.00    -0.215 OA
ATOM     16  C   UNL     1     -11.783  15.919  69.126  0.00  0.00    +0.212 C 
ENDBRANCH   8  16
ENDBRANCH   6  13
ENDBRANCH   5   6
ENDBRANCH   4   5
ENDBRANCH   3   4
ENDBRANCH   2   3
ENDBRANCH   1   2
BRANCH   1  17
ATOM     17  C   UNL     1      -9.030   8.173  66.248  0.00  0.00    +0.003 C 
BRANCH  17  18
ATOM     18  C   UNL     1     -10.443   8.262  66.811  0.00  0.00    +0.032 C 
BRANCH  18  19
ATOM     19  C   UNL     1     -10.902   6.872  67.166  0.00  0.00    +0.142 C 
BRANCH  19  20
ATOM     20  O   UNL     1     -10.283   6.423  68.322  0.00  0.00    -0.351 OA
BRANCH  20  21
ATOM     21  C   UNL     1     -11.199   6.153  69.347  0.00  0.00    +0.174 C 
BRANCH  21  22
ATOM     22  C   UNL     1     -10.552   6.490  70.666  0.00  0.00    +0.175 C 
BRANCH  22  23
ATOM     23  O   UNL     1     -11.426   7.228  71.477  0.00  0.00    -0.346 OA
BRANCH  23  24
ATOM     24  C   UNL     1     -10.742   8.351  71.952  0.00  0.00    +0.170 C 
BRANCH  24  25
ATOM     25  C   UNL     1     -11.132   9.530  71.136  0.00  0.00    +0.028 A 
ATOM     26  C   UNL     1     -10.323   9.946  70.093  0.00  0.00    +0.057 A 
ATOM     27 CL   UNL     1      -8.767   9.195  69.810  0.00  0.00    -0.082 Cl
ATOM     28  C   UNL     1     -10.793  10.974  69.284  0.00  0.00    +0.011 A 
ATOM     29  C   UNL     1     -11.857  11.746  69.733  0.00  0.00    +0.002 A 
ATOM     30  C   UNL     1     -12.520  11.413  70.907  0.00  0.00    +0.011 A 
ATOM     31  C   UNL     1     -12.349  10.136  71.413  0.00  0.00    +0.057 A 
ATOM     32 CL   UNL     1     -13.661   9.255  72.185  0.00  0.00    -0.082 Cl
ENDBRANCH  24  25
ENDBRANCH  23  24
ENDBRANCH  22  23
ENDBRANCH  21  22
ENDBRANCH  20  21
ENDBRANCH  19  20
ENDBRANCH  18  19
ENDBRANCH  17  18
ENDBRANCH   1  17
TORSDOF 16
ENDMDL
MODEL 4
REMARK VINA RESULT:      -5.9      3.008      5.182
REMARK  Name = 
REMARK  16 active torsions:
REMARK  status: ('A' for Active; 'I' for Inactive)
REMARK    1  A    between atoms: C_2  and  C_3
REMARK    2  A    between atoms: C_5  and  C_6
REMARK    3  A    between atoms: C_6  and  C_8
REMARK    4  A    between atoms: C_8  and  N_9
REMARK    5  A    between atoms: N_9  and  C_10
REMARK    6  A    between atoms: C_10  and  C_11
REMARK    7  A    between atoms: C_11  and  C_12
REMARK    8  A    between atoms: C_12  and  C_13
REMARK    9  A    between atoms: C_13  and  C_14
REMARK   10  A    between atoms: C_14  and  C_15
REMARK   11  A    between atoms: C_15  and  O_16
REMARK   12  A    between atoms: O_16  and  C_17
REMARK   13  A    between atoms: C_17  and  C_18
REMARK   14  A    between atoms: C_18  and  O_19
REMARK   15  A    between atoms: O_19  and  C_20
REMARK   16  A    between atoms: C_20  and  C_21
REMARK                            x       y       z     vdW  Elec       q    Type
REMARK                         _______ _______ _______ _____ _____    ______ ____
ROOT
ATOM      1  C   UNL     1      -9.821  13.647  66.112  0.00  0.00    +0.002 C 
ENDROOT
BRANCH   1   2
ATOM      2  C   UNL     1      -9.298  15.058  66.149  0.00  0.00    +0.019 C 
BRANCH   2   3
ATOM      3  C   UNL     1     -10.436  16.030  65.859  0.00  0.00    +0.089 C 
BRANCH   3   4
ATOM      4  N   UNL     1     -10.542  16.905  67.015  0.00  0.00    -0.215 NA
BRANCH   4   5
ATOM      5  C   UNL     1     -11.201  16.153  68.059  0.00  0.00    +0.126 C 
BRANCH   5   6
ATOM      6  C   UNL     1     -10.644  16.801  69.473  0.00  0.00    +0.192 C 
ATOM      7  O   UNL     1      -9.528  15.772  69.559  0.00  0.00    -0.217 OA
BRANCH   6  13
ATOM      8  C   UNL     1     -12.320  15.229  72.509  0.00  0.00    +0.049 A 
ATOM      9  C   UNL     1     -12.994  14.151  71.950  0.00  0.00    +0.194 A 
ATOM     10  O   UNL     1     -14.124  13.604  72.568  0.00  0.00    -0.287 OA
ATOM     11  C   UNL     1     -12.597  13.763  70.675  0.00  0.00    +0.042 A 
ATOM     12  C   UNL     1     -11.827  14.602  69.878  0.00  0.00    +0.001 A 
ATOM     13  C   UNL     1     -11.639  15.871  70.347  0.00  0.00    +0.009 A 
ATOM     14  C   UNL     1     -11.490  16.019  71.720  0.00  0.00    -0.000 A 
BRANCH   8  16
ATOM     15  O   UNL     1     -13.141  16.131  73.982  0.00  0.00    -0.215 OA
ATOM     16  C   UNL     1     -12.958  15.812  73.732  0.00  0.00    +0.212 C 
ENDBRANCH   8  16
ENDBRANCH   6  13
ENDBRANCH   5   6
ENDBRANCH   4   5
ENDBRANCH   3   4
ENDBRANCH   2   3
ENDBRANCH   1   2
BRANCH   1  17
ATOM     17  C   UNL     1     -10.569  13.352  64.839  0.00  0.00    +0.003 C 
BRANCH  17  18
ATOM     18  C   UNL     1     -11.113  11.930  64.903  0.00  0.00    +0.032 C 
BRANCH  18  19
ATOM     19  C   UNL     1     -10.348  11.084  63.920  0.00  0.00    +0.142 C 
BRANCH  19  20
ATOM     20  O   UNL     1      -9.829   9.954  64.533  0.00  0.00    -0.351 OA
BRANCH  20  21
ATOM     21  C   UNL     1     -10.297   9.796  65.844  0.00  0.00    +0.174 C 
BRANCH  21  22
ATOM     22  C   UNL     1      -9.793   8.477  66.374  0.00  0.00    +0.175 C 
BRANCH  22  23
ATOM     23  O   UNL     1     -10.536   8.072  67.492  0.00  0.00    -0.346 OA
BRANCH  23  24
ATOM     24  C   UNL     1      -9.801   8.378  68.642  0.00  0.00    +0.170 C 
BRANCH  24  25
ATOM     25  C   UNL     1     -10.746   8.704  69.742  0.00  0.00    +0.028 A 
ATOM     26  C   UNL     1     -11.167  10.009  69.928  0.00  0.00    +0.057 A 
ATOM     27 CL   UNL     1     -10.487  11.314  68.979  0.00  0.00    -0.082 Cl
ATOM     28  C   UNL     1     -12.145  10.240  70.889  0.00  0.00    +0.011 A 
ATOM     29  C   UNL     1     -12.411   9.249  71.825  0.00  0.00    +0.002 A 
ATOM     30  C   UNL     1     -11.803   8.004  71.722  0.00  0.00    +0.011 A 
ATOM     31  C   UNL     1     -11.233   7.655  70.509  0.00  0.00    +0.057 A 
ATOM     32 CL   UNL     1     -11.299   6.012  69.886  0.00  0.00    -0.082 Cl
ENDBRANCH  24  25
ENDBRANCH  23  24
ENDBRANCH  22  23
ENDBRANCH  21  22
ENDBRANCH  20  21
ENDBRANCH  19  20
ENDBRANCH  18  19
ENDBRANCH  17  18
ENDBRANCH   1  17
TORSDOF 16
ENDMDL
MODEL 5
REMARK VINA RESULT:      -5.9      3.276      8.191
REMARK  Name = 
REMARK  16 active torsions:
REMARK  status: ('A' for Active; 'I' for Inactive)
REMARK    1  A    between atoms: C_2  and  C_3
REMARK    2  A    between atoms: C_5  and  C_6
REMARK    3  A    between atoms: C_6  and  C_8
REMARK    4  A    between atoms: C_8  and  N_9
REMARK    5  A    between atoms: N_9  and  C_10
REMARK    6  A    between atoms: C_10  and  C_11
REMARK    7  A    between atoms: C_11  and  C_12
REMARK    8  A    between atoms: C_12  and  C_13
REMARK    9  A    between atoms: C_13  and  C_14
REMARK   10  A    between atoms: C_14  and  C_15
REMARK   11  A    between atoms: C_15  and  O_16
REMARK   12  A    between atoms: O_16  and  C_17
REMARK   13  A    between atoms: C_17  and  C_18
REMARK   14  A    between atoms: C_18  and  O_19
REMARK   15  A    between atoms: O_19  and  C_20
REMARK   16  A    between atoms: C_20  and  C_21
REMARK                            x       y       z     vdW  Elec       q    Type
REMARK                         _______ _______ _______ _____ _____    ______ ____
ROOT
ATOM      1  C   UNL     1     -12.705  12.498  71.039  0.00  0.00    +0.002 C 
ENDROOT
BRANCH   1   2
ATOM      2  C   UNL     1     -12.558  11.014  70.833  0.00  0.00    +0.019 C 
BRANCH   2   3
ATOM      3  C   UNL     1     -13.196  10.272  72.002  0.00  0.00    +0.089 C 
BRANCH   3   4
ATOM      4  N   UNL     1     -13.124   8.855  71.686  0.00  0.00    -0.215 NA
BRANCH   4   5
ATOM      5  C   UNL     1     -11.758   8.438  71.905  0.00  0.00    +0.126 C 
BRANCH   5   6
ATOM      6  C   UNL     1     -11.461   7.306  70.739  0.00  0.00    +0.192 C 
ATOM      7  O   UNL     1     -10.222   6.811  71.469  0.00  0.00    -0.217 OA
BRANCH   6  13
ATOM      8  C   UNL     1      -9.592   8.824  67.789  0.00  0.00    +0.049 A 
ATOM      9  C   UNL     1      -8.874   9.850  68.390  0.00  0.00    +0.194 A 
ATOM     10  O   UNL     1      -8.460  10.970  67.658  0.00  0.00    -0.287 OA
ATOM     11  C   UNL     1      -8.744   9.791  69.772  0.00  0.00    +0.042 A 
ATOM     12  C   UNL     1      -9.560   8.963  70.535  0.00  0.00    +0.001 A 
ATOM     13  C   UNL     1     -10.590   8.359  69.872  0.00  0.00    +0.009 A 
ATOM     14  C   UNL     1     -10.346   7.951  68.567  0.00  0.00    -0.000 A 
BRANCH   8  16
ATOM     15  O   UNL     1     -10.052   8.957  65.937  0.00  0.00    -0.215 OA
ATOM     16  C   UNL     1      -9.974   9.066  66.361  0.00  0.00    +0.212 C 
ENDBRANCH   8  16
ENDBRANCH   6  13
ENDBRANCH   5   6
ENDBRANCH   4   5
ENDBRANCH   3   4
ENDBRANCH   2   3
ENDBRANCH   1   2
BRANCH   1  17
ATOM     17  C   UNL     1     -13.513  12.823  72.267  0.00  0.00    +0.003 C 
BRANCH  17  18
ATOM     18  C   UNL     1     -14.326  14.085  72.005  0.00  0.00    +0.032 C 
BRANCH  18  19
ATOM     19  C   UNL     1     -13.588  15.258  72.595  0.00  0.00    +0.142 C 
BRANCH  19  20
ATOM     20  O   UNL     1     -13.066  16.069  71.600  0.00  0.00    -0.351 OA
BRANCH  20  21
ATOM     21  C   UNL     1     -11.669  15.987  71.522  0.00  0.00    +0.174 C 
BRANCH  21  22
ATOM     22  C   UNL     1     -11.253  16.260  70.099  0.00  0.00    +0.175 C 
BRANCH  22  23
ATOM     23  O   UNL     1     -11.834  15.332  69.223  0.00  0.00    -0.346 OA
BRANCH  23  24
ATOM     24  C   UNL     1     -10.809  14.694  68.517  0.00  0.00    +0.170 C 
BRANCH  24  25
ATOM     25  C   UNL     1     -11.197  14.607  67.085  0.00  0.00    +0.028 A 
ATOM     26  C   UNL     1     -10.805  15.598  66.202  0.00  0.00    +0.057 A 
ATOM     27 CL   UNL     1      -9.982  17.034  66.773  0.00  0.00    -0.082 Cl
ATOM     28  C   UNL     1     -11.086  15.407  64.854  0.00  0.00    +0.011 A 
ATOM     29  C   UNL     1     -12.010  14.435  64.494  0.00  0.00    +0.002 A 
ATOM     30  C   UNL     1     -12.544  13.583  65.453  0.00  0.00    +0.011 A 
ATOM     31  C   UNL     1     -11.890  13.479  66.669  0.00  0.00    +0.057 A 
ATOM     32 CL   UNL     1     -11.774  11.955  67.538  0.00  0.00    -0.082 Cl
ENDBRANCH  24  25
ENDBRANCH  23  24
ENDBRANCH  22  23
ENDBRANCH  21  22
ENDBRANCH  20  21
ENDBRANCH  19  20
ENDBRANCH  18  19
ENDBRANCH  17  18
ENDBRANCH   1  17
TORSDOF 16
ENDMDL
MODEL 6
REMARK VINA RESULT:      -5.9      2.655      4.950
REMARK  Name = 
REMARK  16 active torsions:
REMARK  status: ('A' for Active; 'I' for Inactive)
REMARK    1  A    between atoms: C_2  and  C_3
REMARK    2  A    between atoms: C_5  and  C_6
REMARK    3  A    between atoms: C_6  and  C_8
REMARK    4  A    between atoms: C_8  and  N_9
REMARK    5  A    between atoms: N_9  and  C_10
REMARK    6  A    between atoms: C_10  and  C_11
REMARK    7  A    between atoms: C_11  and  C_12
REMARK    8  A    between atoms: C_12  and  C_13
REMARK    9  A    between atoms: C_13  and  C_14
REMARK   10  A    between atoms: C_14  and  C_15
REMARK   11  A    between atoms: C_15  and  O_16
REMARK   12  A    between atoms: O_16  and  C_17
REMARK   13  A    between atoms: C_17  and  C_18
REMARK   14  A    between atoms: C_18  and  O_19
REMARK   15  A    between atoms: O_19  and  C_20
REMARK   16  A    between atoms: C_20  and  C_21
REMARK                            x       y       z     vdW  Elec       q    Type
REMARK                         _______ _______ _______ _____ _____    ______ ____
ROOT
ATOM      1  C   UNL     1     -12.821  12.822  71.576  0.00  0.00    +0.002 C 
ENDROOT
BRANCH   1   2
ATOM      2  C   UNL     1     -13.101  14.235  71.138  0.00  0.00    +0.019 C 
BRANCH   2   3
ATOM      3  C   UNL     1     -11.955  15.140  71.573  0.00  0.00    +0.089 C 
BRANCH   3   4
ATOM      4  N   UNL     1     -11.922  16.252  70.637  0.00  0.00    -0.215 NA
BRANCH   4   5
ATOM      5  C   UNL     1     -11.733  15.693  69.318  0.00  0.00    +0.126 C 
BRANCH   5   6
ATOM      6  C   UNL     1     -10.126  15.313  69.238  0.00  0.00    +0.192 C 
ATOM      7  O   UNL     1      -9.851  16.474  68.296  0.00  0.00    -0.217 OA
BRANCH   6  13
ATOM      8  C   UNL     1     -11.959  13.391  66.511  0.00  0.00    +0.049 A 
ATOM      9  C   UNL     1     -11.030  12.421  66.156  0.00  0.00    +0.194 A 
ATOM     10  O   UNL     1     -11.047  11.829  64.888  0.00  0.00    -0.287 OA
ATOM     11  C   UNL     1      -9.990  12.200  67.052  0.00  0.00    +0.042 A 
ATOM     12  C   UNL     1      -9.703  13.117  68.058  0.00  0.00    +0.001 A 
ATOM     13  C   UNL     1     -10.378  14.302  68.000  0.00  0.00    +0.009 A 
ATOM     14  C   UNL     1     -11.697  14.256  67.568  0.00  0.00    -0.000 A 
BRANCH   8  16
ATOM     15  O   UNL     1     -13.083  14.108  65.139  0.00  0.00    -0.215 OA
ATOM     16  C   UNL     1     -12.880  13.820  65.410  0.00  0.00    +0.212 C 
ENDBRANCH   8  16
ENDBRANCH   6  13
ENDBRANCH   5   6
ENDBRANCH   4   5
ENDBRANCH   3   4
ENDBRANCH   2   3
ENDBRANCH   1   2
BRANCH   1  17
ATOM     17  C   UNL     1     -12.150  12.015  70.496  0.00  0.00    +0.003 C 
BRANCH  17  18
ATOM     18  C   UNL     1     -12.484  10.543  70.699  0.00  0.00    +0.032 C 
BRANCH  18  19
ATOM     19  C   UNL     1     -13.402  10.423  71.887  0.00  0.00    +0.142 C 
BRANCH  19  20
ATOM     20  O   UNL     1     -13.359   9.145  72.423  0.00  0.00    -0.351 OA
BRANCH  20  21
ATOM     21  C   UNL     1     -13.905   8.186  71.558  0.00  0.00    +0.174 C 
BRANCH  21  22
ATOM     22  C   UNL     1     -13.121   6.907  71.710  0.00  0.00    +0.175 C 
BRANCH  22  23
ATOM     23  O   UNL     1     -11.854   7.160  72.253  0.00  0.00    -0.346 OA
BRANCH  23  24
ATOM     24  C   UNL     1     -10.897   6.533  71.449  0.00  0.00    +0.170 C 
BRANCH  24  25
ATOM     25  C   UNL     1     -10.171   7.570  70.670  0.00  0.00    +0.028 A 
ATOM     26  C   UNL     1      -9.216   8.356  71.289  0.00  0.00    +0.057 A 
ATOM     27 CL   UNL     1      -8.950   8.251  73.017  0.00  0.00    -0.082 Cl
ATOM     28  C   UNL     1      -8.479   9.224  70.491  0.00  0.00    +0.011 A 
ATOM     29  C   UNL     1      -8.939   9.509  69.212  0.00  0.00    +0.002 A 
ATOM     30  C   UNL     1     -10.041   8.839  68.696  0.00  0.00    +0.011 A 
ATOM     31  C   UNL     1     -10.437   7.664  69.311  0.00  0.00    +0.057 A 
ATOM     32 CL   UNL     1     -11.054   6.294  68.398  0.00  0.00    -0.082 Cl
ENDBRANCH  24  25
ENDBRANCH  23  24
ENDBRANCH  22  23
ENDBRANCH  21  22
ENDBRANCH  20  21
ENDBRANCH  19  20
ENDBRANCH  18  19
ENDBRANCH  17  18
ENDBRANCH   1  17
TORSDOF 16
ENDMDL
MODEL 7
REMARK VINA RESULT:      -5.8      3.105      6.525
REMARK  Name = 
REMARK  16 active torsions:
REMARK  status: ('A' for Active; 'I' for Inactive)
REMARK    1  A    between atoms: C_2  and  C_3
REMARK    2  A    between atoms: C_5  and  C_6
REMARK    3  A    between atoms: C_6  and  C_8
REMARK    4  A    between atoms: C_8  and  N_9
REMARK    5  A    between atoms: N_9  and  C_10
REMARK    6  A    between atoms: C_10  and  C_11
REMARK    7  A    between atoms: C_11  and  C_12
REMARK    8  A    between atoms: C_12  and  C_13
REMARK    9  A    between atoms: C_13  and  C_14
REMARK   10  A    between atoms: C_14  and  C_15
REMARK   11  A    between atoms: C_15  and  O_16
REMARK   12  A    between atoms: O_16  and  C_17
REMARK   13  A    between atoms: C_17  and  C_18
REMARK   14  A    between atoms: C_18  and  O_19
REMARK   15  A    between atoms: O_19  and  C_20
REMARK   16  A    between atoms: C_20  and  C_21
REMARK                            x       y       z     vdW  Elec       q    Type
REMARK                         _______ _______ _______ _____ _____    ______ ____
ROOT
ATOM      1  C   UNL     1      -8.000  18.138  68.390  0.00  0.00    +0.002 C 
ENDROOT
BRANCH   1   2
ATOM      2  C   UNL     1      -6.913  18.001  67.356  0.00  0.00    +0.019 C 
BRANCH   2   3
ATOM      3  C   UNL     1      -7.351  17.008  66.286  0.00  0.00    +0.089 C 
BRANCH   3   4
ATOM      4  N   UNL     1      -7.623  15.752  66.968  0.00  0.00    -0.215 NA
BRANCH   4   5
ATOM      5  C   UNL     1      -8.837  15.212  66.399  0.00  0.00    +0.126 C 
BRANCH   5   6
ATOM      6  C   UNL     1      -9.320  14.037  67.455  0.00  0.00    +0.192 C 
ATOM      7  O   UNL     1      -8.312  13.049  66.889  0.00  0.00    -0.217 OA
BRANCH   6  13
ATOM      8  C   UNL     1     -10.932  12.598  64.321  0.00  0.00    +0.049 A 
ATOM      9  C   UNL     1     -12.268  12.938  64.492  0.00  0.00    +0.194 A 
ATOM     10  O   UNL     1     -13.288  12.202  63.877  0.00  0.00    -0.287 OA
ATOM     11  C   UNL     1     -12.542  13.924  65.432  0.00  0.00    +0.042 A 
ATOM     12  C   UNL     1     -11.594  14.297  66.378  0.00  0.00    +0.001 A 
ATOM     13  C   UNL     1     -10.468  13.527  66.435  0.00  0.00    +0.009 A 
ATOM     14  C   UNL     1      -9.977  13.038  65.231  0.00  0.00    -0.000 A 
BRANCH   8  16
ATOM     15  O   UNL     1     -10.507  10.947  63.453  0.00  0.00    -0.215 OA
ATOM     16  C   UNL     1     -10.692  11.342  63.541  0.00  0.00    +0.212 C 
ENDBRANCH   8  16
ENDBRANCH   6  13
ENDBRANCH   5   6
ENDBRANCH   4   5
ENDBRANCH   3   4
ENDBRANCH   2   3
ENDBRANCH   1   2
BRANCH   1  17
ATOM     17  C   UNL     1      -9.118  19.030  67.923  0.00  0.00    +0.003 C 
BRANCH  17  18
ATOM     18  C   UNL     1     -10.412  18.227  67.891  0.00  0.00    +0.032 C 
BRANCH  18  19
ATOM     19  C   UNL     1     -10.360  17.198  68.990  0.00  0.00    +0.142 C 
BRANCH  19  20
ATOM     20  O   UNL     1     -11.521  16.441  69.019  0.00  0.00    -0.351 OA
BRANCH  20  21
ATOM     21  C   UNL     1     -11.813  15.962  70.304  0.00  0.00    +0.174 C 
BRANCH  21  22
ATOM     22  C   UNL     1     -12.522  14.639  70.169  0.00  0.00    +0.175 C 
BRANCH  22  23
ATOM     23  O   UNL     1     -11.606  13.579  70.174  0.00  0.00    -0.346 OA
BRANCH  23  24
ATOM     24  C   UNL     1     -12.184  12.494  69.508  0.00  0.00    +0.170 C 
BRANCH  24  25
ATOM     25  C   UNL     1     -11.969  11.265  70.315  0.00  0.00    +0.028 A 
ATOM     26  C   UNL     1     -10.912  10.422  70.023  0.00  0.00    +0.057 A 
ATOM     27 CL   UNL     1      -9.905  10.700  68.618  0.00  0.00    -0.082 Cl
ATOM     28  C   UNL     1     -10.682   9.355  70.884  0.00  0.00    +0.011 A 
ATOM     29  C   UNL     1     -11.680   8.988  71.777  0.00  0.00    +0.002 A 
ATOM     30  C   UNL     1     -12.833   9.754  71.896  0.00  0.00    +0.011 A 
ATOM     31  C   UNL     1     -12.812  11.045  71.396  0.00  0.00    +0.057 A 
ATOM     32 CL   UNL     1     -13.645  12.370  72.198  0.00  0.00    -0.082 Cl
ENDBRANCH  24  25
ENDBRANCH  23  24
ENDBRANCH  22  23
ENDBRANCH  21  22
ENDBRANCH  20  21
ENDBRANCH  19  20
ENDBRANCH  18  19
ENDBRANCH  17  18
ENDBRANCH   1  17
TORSDOF 16
ENDMDL
MODEL 8
REMARK VINA RESULT:      -5.8      3.404      7.305
REMARK  Name = 
REMARK  16 active torsions:
REMARK  status: ('A' for Active; 'I' for Inactive)
REMARK    1  A    between atoms: C_2  and  C_3
REMARK    2  A    between atoms: C_5  and  C_6
REMARK    3  A    between atoms: C_6  and  C_8
REMARK    4  A    between atoms: C_8  and  N_9
REMARK    5  A    between atoms: N_9  and  C_10
REMARK    6  A    between atoms: C_10  and  C_11
REMARK    7  A    between atoms: C_11  and  C_12
REMARK    8  A    between atoms: C_12  and  C_13
REMARK    9  A    between atoms: C_13  and  C_14
REMARK   10  A    between atoms: C_14  and  C_15
REMARK   11  A    between atoms: C_15  and  O_16
REMARK   12  A    between atoms: O_16  and  C_17
REMARK   13  A    between atoms: C_17  and  C_18
REMARK   14  A    between atoms: C_18  and  O_19
REMARK   15  A    between atoms: O_19  and  C_20
REMARK   16  A    between atoms: C_20  and  C_21
REMARK                            x       y       z     vdW  Elec       q    Type
REMARK                         _______ _______ _______ _____ _____    ______ ____
ROOT
ATOM      1  C   UNL     1     -12.045  10.912  70.143  0.00  0.00    +0.002 C 
ENDROOT
BRANCH   1   2
ATOM      2  C   UNL     1     -10.768  10.119  70.232  0.00  0.00    +0.019 C 
BRANCH   2   3
ATOM      3  C   UNL     1     -10.853   8.912  69.305  0.00  0.00    +0.089 C 
BRANCH   3   4
ATOM      4  N   UNL     1     -10.645   9.409  67.954  0.00  0.00    -0.215 NA
BRANCH   4   5
ATOM      5  C   UNL     1      -9.419  10.176  67.966  0.00  0.00    +0.126 C 
BRANCH   5   6
ATOM      6  C   UNL     1      -8.981  10.310  66.379  0.00  0.00    +0.192 C 
ATOM      7  O   UNL     1      -8.007  11.434  66.696  0.00  0.00    -0.217 OA
BRANCH   6  13
ATOM      8  C   UNL     1     -11.527  12.380  64.449  0.00  0.00    +0.049 A 
ATOM      9  C   UNL     1     -11.930  13.313  65.396  0.00  0.00    +0.194 A 
ATOM     10  O   UNL     1     -13.182  13.933  65.315  0.00  0.00    -0.287 OA
ATOM     11  C   UNL     1     -11.109  13.462  66.508  0.00  0.00    +0.042 A 
ATOM     12  C   UNL     1     -10.146  12.510  66.822  0.00  0.00    +0.001 A 
ATOM     13  C   UNL     1     -10.177  11.360  66.088  0.00  0.00    +0.009 A 
ATOM     14  C   UNL     1     -10.509  11.479  64.744  0.00  0.00    -0.000 A 
BRANCH   8  16
ATOM     15  O   UNL     1     -12.974  11.929  63.281  0.00  0.00    -0.215 OA
ATOM     16  C   UNL     1     -12.565  12.020  63.430  0.00  0.00    +0.212 C 
ENDBRANCH   8  16
ENDBRANCH   6  13
ENDBRANCH   5   6
ENDBRANCH   4   5
ENDBRANCH   3   4
ENDBRANCH   2   3
ENDBRANCH   1   2
BRANCH   1  17
ATOM     17  C   UNL     1     -12.924  10.709  71.348  0.00  0.00    +0.003 C 
BRANCH  17  18
ATOM     18  C   UNL     1     -13.260  12.068  71.950  0.00  0.00    +0.032 C 
BRANCH  18  19
ATOM     19  C   UNL     1     -12.673  13.137  71.066  0.00  0.00    +0.142 C 
BRANCH  19  20
ATOM     20  O   UNL     1     -12.697  14.372  71.696  0.00  0.00    -0.351 OA
BRANCH  20  21
ATOM     21  C   UNL     1     -12.871  15.429  70.791  0.00  0.00    +0.174 C 
BRANCH  21  22
ATOM     22  C   UNL     1     -11.698  15.444  69.845  0.00  0.00    +0.175 C 
BRANCH  22  23
ATOM     23  O   UNL     1     -11.524  16.719  69.287  0.00  0.00    -0.346 OA
BRANCH  23  24
ATOM     24  C   UNL     1     -10.748  16.590  68.131  0.00  0.00    +0.170 C 
BRANCH  24  25
ATOM     25  C   UNL     1      -9.476  17.333  68.322  0.00  0.00    +0.028 A 
ATOM     26  C   UNL     1      -8.309  16.646  68.608  0.00  0.00    +0.057 A 
ATOM     27 CL   UNL     1      -8.335  14.918  68.896  0.00  0.00    -0.082 Cl
ATOM     28  C   UNL     1      -7.126  17.374  68.655  0.00  0.00    +0.011 A 
ATOM     29  C   UNL     1      -7.196  18.758  68.746  0.00  0.00    +0.002 A 
ATOM     30  C   UNL     1      -8.421  19.407  68.661  0.00  0.00    +0.011 A 
ATOM     31  C   UNL     1      -9.494  18.708  68.134  0.00  0.00    +0.057 A 
ATOM     32 CL   UNL     1     -10.703  19.482  67.118  0.00  0.00    -0.082 Cl
ENDBRANCH  24  25
ENDBRANCH  23  24
ENDBRANCH  22  23
ENDBRANCH  21  22
ENDBRANCH  20  21
ENDBRANCH  19  20
ENDBRANCH  18  19
ENDBRANCH  17  18
ENDBRANCH   1  17
TORSDOF 16
ENDMDL
MODEL 9
REMARK VINA RESULT:      -5.8      3.909      7.425
REMARK  Name = 
REMARK  16 active torsions:
REMARK  status: ('A' for Active; 'I' for Inactive)
REMARK    1  A    between atoms: C_2  and  C_3
REMARK    2  A    between atoms: C_5  and  C_6
REMARK    3  A    between atoms: C_6  and  C_8
REMARK    4  A    between atoms: C_8  and  N_9
REMARK    5  A    between atoms: N_9  and  C_10
REMARK    6  A    between atoms: C_10  and  C_11
REMARK    7  A    between atoms: C_11  and  C_12
REMARK    8  A    between atoms: C_12  and  C_13
REMARK    9  A    between atoms: C_13  and  C_14
REMARK   10  A    between atoms: C_14  and  C_15
REMARK   11  A    between atoms: C_15  and  O_16
REMARK   12  A    between atoms: O_16  and  C_17
REMARK   13  A    between atoms: C_17  and  C_18
REMARK   14  A    between atoms: C_18  and  O_19
REMARK   15  A    between atoms: O_19  and  C_20
REMARK   16  A    between atoms: C_20  and  C_21
REMARK                            x       y       z     vdW  Elec       q    Type
REMARK                         _______ _______ _______ _____ _____    ______ ____
ROOT
ATOM      1  C   UNL     1      -9.541  10.841  65.448  0.00  0.00    +0.002 C 
ENDROOT
BRANCH   1   2
ATOM      2  C   UNL     1     -10.120   9.782  66.348  0.00  0.00    +0.019 C 
BRANCH   2   3
ATOM      3  C   UNL     1     -11.125  10.418  67.301  0.00  0.00    +0.089 C 
BRANCH   3   4
ATOM      4  N   UNL     1     -10.393  10.768  68.507  0.00  0.00    -0.215 NA
BRANCH   4   5
ATOM      5  C   UNL     1     -11.186  11.745  69.218  0.00  0.00    +0.126 C 
BRANCH   5   6
ATOM      6  C   UNL     1     -11.214  13.074  68.236  0.00  0.00    +0.192 C 
ATOM      7  O   UNL     1      -9.702  13.215  68.307  0.00  0.00    -0.217 OA
BRANCH   6  13
ATOM      8  C   UNL     1     -12.816  14.687  71.290  0.00  0.00    +0.049 A 
ATOM      9  C   UNL     1     -12.064  15.845  71.443  0.00  0.00    +0.194 A 
ATOM     10  O   UNL     1     -11.947  16.474  72.687  0.00  0.00    -0.287 OA
ATOM     11  C   UNL     1     -11.302  16.239  70.349  0.00  0.00    +0.042 A 
ATOM     12  C   UNL     1     -11.038  15.360  69.305  0.00  0.00    +0.001 A 
ATOM     13  C   UNL     1     -11.417  14.063  69.501  0.00  0.00    +0.009 A 
ATOM     14  C   UNL     1     -12.598  13.851  70.200  0.00  0.00    -0.000 A 
BRANCH   8  16
ATOM     15  O   UNL     1     -13.411  14.065  72.999  0.00  0.00    -0.215 OA
ATOM     16  C   UNL     1     -13.378  14.123  72.559  0.00  0.00    +0.212 C 
ENDBRANCH   8  16
ENDBRANCH   6  13
ENDBRANCH   5   6
ENDBRANCH   4   5
ENDBRANCH   3   4
ENDBRANCH   2   3
ENDBRANCH   1   2
BRANCH   1  17
ATOM     17  C   UNL     1      -9.735  10.516  63.991  0.00  0.00    +0.003 C 
BRANCH  17  18
ATOM     18  C   UNL     1     -10.979  11.236  63.485  0.00  0.00    +0.032 C 
BRANCH  18  19
ATOM     19  C   UNL     1     -10.964  12.643  64.020  0.00  0.00    +0.142 C 
BRANCH  19  20
ATOM     20  O   UNL     1     -12.248  13.160  64.099  0.00  0.00    -0.351 OA
BRANCH  20  21
ATOM     21  C   UNL     1     -12.271  14.451  64.643  0.00  0.00    +0.174 C 
BRANCH  21  22
ATOM     22  C   UNL     1     -10.876  14.805  65.090  0.00  0.00    +0.175 C 
BRANCH  22  23
ATOM     23  O   UNL     1     -10.882  15.965  65.876  0.00  0.00    -0.346 OA
BRANCH  23  24
ATOM     24  C   UNL     1      -9.766  16.735  65.534  0.00  0.00    +0.170 C 
BRANCH  24  25
ATOM     25  C   UNL     1      -9.317  17.488  66.734  0.00  0.00    +0.028 A 
ATOM     26  C   UNL     1      -8.239  17.032  67.472  0.00  0.00    +0.057 A 
ATOM     27 CL   UNL     1      -7.483  15.497  67.101  0.00  0.00    -0.082 Cl
ATOM     28  C   UNL     1      -7.782  17.836  68.509  0.00  0.00    +0.011 A 
ATOM     29  C   UNL     1      -8.597  18.863  68.969  0.00  0.00    +0.002 A 
ATOM     30  C   UNL     1      -9.787  19.160  68.318  0.00  0.00    +0.011 A 
ATOM     31  C   UNL     1      -9.965  18.678  67.032  0.00  0.00    +0.057 A 
ATOM     32 CL   UNL     1     -10.793  19.611  65.793  0.00  0.00    -0.082 Cl
ENDBRANCH  24  25
ENDBRANCH  23  24
ENDBRANCH  22  23
ENDBRANCH  21  22
ENDBRANCH  20  21
ENDBRANCH  19  20
ENDBRANCH  18  19
ENDBRANCH  17  18
ENDBRANCH   1  17
TORSDOF 16
ENDMDL
