MODEL 1
REMARK VINA RESULT:      -5.6      0.000      0.000
REMARK  Name = 
REMARK  5 active torsions:
REMARK  status: ('A' for Active; 'I' for Inactive)
REMARK    1  A    between atoms: C_2  and  C_3
REMARK    2  A    between atoms: C_3  and  C_4
REMARK    3  A    between atoms: C_4  and  C_5
REMARK    4  A    between atoms: C_5  and  C_7
REMARK    5  A    between atoms: C_8  and  C_9
REMARK                            x       y       z     vdW  Elec       q    Type
REMARK                         _______ _______ _______ _____ _____    ______ ____
ROOT
ATOM      1  C   UNL     1     -11.209  13.174  65.849  0.00  0.00    +0.155 C 
ATOM      2  C   UNL     1     -10.929  14.324  66.715  0.00  0.00    +0.241 C 
ATOM      3  O   UNL     1     -10.031  14.160  67.597  0.00  0.00    -0.274 OA
ATOM      4  N   UNL     1     -10.891  15.584  66.028  0.00  0.00    -0.210 N 
ATOM      5  C   UNL     1     -10.351  16.781  66.637  0.00  0.00    +0.124 C 
ATOM      6  C   UNL     1     -11.336  15.716  64.674  0.00  0.00    +0.336 C 
ATOM      7  O   UNL     1     -11.381  16.832  64.107  0.00  0.00    -0.250 OA
ATOM      8  N   UNL     1     -12.264  14.730  64.210  0.00  0.00    -0.127 NA
ATOM      9  C   UNL     1     -12.283  13.452  64.861  0.00  0.00    +0.258 C 
ATOM     10  O   UNL     1     -13.398  12.894  65.101  0.00  0.00    -0.272 OA
ENDROOT
BRANCH   1  11
ATOM     11  C   UNL     1      -9.813  13.125  64.963  0.00  0.00    +0.081 C 
ATOM     12  C   UNL     1      -9.134  11.938  65.902  0.00  0.00    +0.015 C 
BRANCH  11  13
ATOM     13  C   UNL     1     -10.441  12.064  63.935  0.00  0.00    -0.091 C 
ATOM     14  C   UNL     1     -10.046  11.303  63.069  0.00  0.00    -0.091 C 
BRANCH  14  15
ATOM     15  C   UNL     1      -9.391  10.113  62.484  0.00  0.00    +0.076 C 
ATOM     16  C   UNL     1      -8.280  10.616  61.612  0.00  0.00    +0.015 C 
ENDBRANCH  14  15
ENDBRANCH  11  13
ENDBRANCH   1  11
BRANCH   1  17
ATOM     17  C   UNL     1     -11.396  11.872  66.483  0.00  0.00    +0.044 C 
BRANCH  17  19
ATOM     18  C   UNL     1     -11.668  11.181  68.812  0.00  0.00    -0.005 C 
ATOM     19  C   UNL     1     -11.898  12.073  67.857  0.00  0.00    -0.025 C 
ENDBRANCH  17  19
ENDBRANCH   1  17
TORSDOF 5
ENDMDL
MODEL 2
REMARK VINA RESULT:      -5.5      2.273      5.217
REMARK  Name = 
REMARK  5 active torsions:
REMARK  status: ('A' for Active; 'I' for Inactive)
REMARK    1  A    between atoms: C_2  and  C_3
REMARK    2  A    between atoms: C_3  and  C_4
REMARK    3  A    between atoms: C_4  and  C_5
REMARK    4  A    between atoms: C_5  and  C_7
REMARK    5  A    between atoms: C_8  and  C_9
REMARK                            x       y       z     vdW  Elec       q    Type
REMARK                         _______ _______ _______ _____ _____    ______ ____
ROOT
ATOM      1  C   UNL     1     -10.271  14.143  66.921  0.00  0.00    +0.155 C 
ATOM      2  C   UNL     1     -10.714  13.387  65.744  0.00  0.00    +0.241 C 
ATOM      3  O   UNL     1     -11.290  12.279  65.971  0.00  0.00    -0.274 OA
ATOM      4  N   UNL     1     -11.314  14.191  64.718  0.00  0.00    -0.210 N 
ATOM      5  C   UNL     1     -12.068  13.615  63.625  0.00  0.00    +0.124 C 
ATOM      6  C   UNL     1     -11.248  15.621  64.747  0.00  0.00    +0.336 C 
ATOM      7  O   UNL     1     -11.698  16.316  63.808  0.00  0.00    -0.250 OA
ATOM      8  N   UNL     1     -10.175  16.193  65.502  0.00  0.00    -0.127 NA
ATOM      9  C   UNL     1      -9.594  15.415  66.559  0.00  0.00    +0.258 C 
ATOM     10  O   UNL     1      -8.333  15.422  66.714  0.00  0.00    -0.272 OA
ENDROOT
BRANCH   1  11
ATOM     11  C   UNL     1     -11.732  14.598  67.547  0.00  0.00    +0.081 C 
ATOM     12  C   UNL     1     -11.832  13.280  68.548  0.00  0.00    +0.015 C 
BRANCH  11  13
ATOM     13  C   UNL     1     -11.028  15.501  68.672  0.00  0.00    -0.091 C 
ATOM     14  C   UNL     1     -11.326  16.008  69.740  0.00  0.00    -0.091 C 
BRANCH  14  15
ATOM     15  C   UNL     1     -11.655  16.077  71.180  0.00  0.00    +0.076 C 
ATOM     16  C   UNL     1     -13.043  15.532  71.333  0.00  0.00    +0.015 C 
ENDBRANCH  14  15
ENDBRANCH  11  13
ENDBRANCH   1  11
BRANCH   1  17
ATOM     17  C   UNL     1      -9.531  13.425  67.954  0.00  0.00    +0.044 C 
BRANCH  17  19
ATOM     18  C   UNL     1      -8.316  11.315  67.739  0.00  0.00    -0.005 C 
ATOM     19  C   UNL     1      -8.528  12.553  67.311  0.00  0.00    -0.025 C 
ENDBRANCH  17  19
ENDBRANCH   1  17
TORSDOF 5
ENDMDL
MODEL 3
REMARK VINA RESULT:      -5.2      2.730      5.775
REMARK  Name = 
REMARK  5 active torsions:
REMARK  status: ('A' for Active; 'I' for Inactive)
REMARK    1  A    between atoms: C_2  and  C_3
REMARK    2  A    between atoms: C_3  and  C_4
REMARK    3  A    between atoms: C_4  and  C_5
REMARK    4  A    between atoms: C_5  and  C_7
REMARK    5  A    between atoms: C_8  and  C_9
REMARK                            x       y       z     vdW  Elec       q    Type
REMARK                         _______ _______ _______ _____ _____    ______ ____
ROOT
ATOM      1  C   UNL     1     -10.246  16.173  67.219  0.00  0.00    +0.155 C 
ATOM      2  C   UNL     1     -10.914  15.966  65.929  0.00  0.00    +0.241 C 
ATOM      3  O   UNL     1     -10.306  16.403  64.904  0.00  0.00    -0.274 OA
ATOM      4  N   UNL     1     -11.517  14.672  65.779  0.00  0.00    -0.210 N 
ATOM      5  C   UNL     1     -11.963  14.170  64.497  0.00  0.00    +0.124 C 
ATOM      6  C   UNL     1     -11.663  13.777  66.887  0.00  0.00    +0.336 C 
ATOM      7  O   UNL     1     -12.267  12.686  66.771  0.00  0.00    -0.250 OA
ATOM      8  N   UNL     1     -11.673  14.372  68.189  0.00  0.00    -0.127 NA
ATOM      9  C   UNL     1     -11.036  15.646  68.361  0.00  0.00    +0.258 C 
ATOM     10  O   UNL     1     -11.594  16.527  69.087  0.00  0.00    -0.272 OA
ENDROOT
BRANCH   1  11
ATOM     11  C   UNL     1      -8.971  15.132  67.062  0.00  0.00    +0.081 C 
ATOM     12  C   UNL     1      -7.938  16.312  66.523  0.00  0.00    +0.015 C 
BRANCH  11  13
ATOM     13  C   UNL     1      -8.542  15.344  68.594  0.00  0.00    -0.091 C 
ATOM     14  C   UNL     1      -7.529  15.263  69.269  0.00  0.00    -0.091 C 
BRANCH  14  15
ATOM     15  C   UNL     1      -6.197  15.637  69.791  0.00  0.00    +0.076 C 
ATOM     16  C   UNL     1      -6.062  17.119  69.610  0.00  0.00    +0.015 C 
ENDBRANCH  14  15
ENDBRANCH  11  13
ENDBRANCH   1  11
BRANCH   1  17
ATOM     17  C   UNL     1      -9.720  17.504  67.508  0.00  0.00    +0.044 C 
BRANCH  17  19
ATOM     18  C   UNL     1     -10.338  19.651  66.514  0.00  0.00    -0.005 C 
ATOM     19  C   UNL     1     -10.712  18.515  67.091  0.00  0.00    -0.025 C 
ENDBRANCH  17  19
ENDBRANCH   1  17
TORSDOF 5
ENDMDL
MODEL 4
REMARK VINA RESULT:      -5.2      0.977      1.229
REMARK  Name = 
REMARK  5 active torsions:
REMARK  status: ('A' for Active; 'I' for Inactive)
REMARK    1  A    between atoms: C_2  and  C_3
REMARK    2  A    between atoms: C_3  and  C_4
REMARK    3  A    between atoms: C_4  and  C_5
REMARK    4  A    between atoms: C_5  and  C_7
REMARK    5  A    between atoms: C_8  and  C_9
REMARK                            x       y       z     vdW  Elec       q    Type
REMARK                         _______ _______ _______ _____ _____    ______ ____
ROOT
ATOM      1  C   UNL     1     -11.136  13.347  66.254  0.00  0.00    +0.155 C 
ATOM      2  C   UNL     1     -10.919  14.568  67.039  0.00  0.00    +0.241 C 
ATOM      3  O   UNL     1     -10.083  14.484  67.990  0.00  0.00    -0.274 OA
ATOM      4  N   UNL     1     -10.838  15.767  66.254  0.00  0.00    -0.210 N 
ATOM      5  C   UNL     1     -10.345  17.015  66.796  0.00  0.00    +0.124 C 
ATOM      6  C   UNL     1     -11.190  15.783  64.867  0.00  0.00    +0.336 C 
ATOM      7  O   UNL     1     -11.201  16.847  64.207  0.00  0.00    -0.250 OA
ATOM      8  N   UNL     1     -12.082  14.754  64.425  0.00  0.00    -0.127 NA
ATOM      9  C   UNL     1     -12.142  13.534  65.177  0.00  0.00    +0.258 C 
ATOM     10  O   UNL     1     -13.269  12.988  65.387  0.00  0.00    -0.272 OA
ENDROOT
BRANCH   1  11
ATOM     11  C   UNL     1      -9.684  13.237  65.472  0.00  0.00    +0.081 C 
ATOM     12  C   UNL     1      -8.994  12.308  66.659  0.00  0.00    +0.015 C 
BRANCH  11  13
ATOM     13  C   UNL     1     -10.170  11.955  64.638  0.00  0.00    -0.091 C 
ATOM     14  C   UNL     1      -9.688  10.922  64.206  0.00  0.00    -0.091 C 
BRANCH  14  15
ATOM     15  C   UNL     1      -9.121   9.556  64.235  0.00  0.00    +0.076 C 
ATOM     16  C   UNL     1      -9.528   8.948  65.543  0.00  0.00    +0.015 C 
ENDBRANCH  14  15
ENDBRANCH  11  13
ENDBRANCH   1  11
BRANCH   1  17
ATOM     17  C   UNL     1     -11.363  12.101  66.980  0.00  0.00    +0.044 C 
BRANCH  17  19
ATOM     18  C   UNL     1     -11.741  11.622  69.347  0.00  0.00    -0.005 C 
ATOM     19  C   UNL     1     -11.946  12.411  68.300  0.00  0.00    -0.025 C 
ENDBRANCH  17  19
ENDBRANCH   1  17
TORSDOF 5
ENDMDL
MODEL 5
REMARK VINA RESULT:      -5.1      3.607      4.837
REMARK  Name = 
REMARK  5 active torsions:
REMARK  status: ('A' for Active; 'I' for Inactive)
REMARK    1  A    between atoms: C_2  and  C_3
REMARK    2  A    between atoms: C_3  and  C_4
REMARK    3  A    between atoms: C_4  and  C_5
REMARK    4  A    between atoms: C_5  and  C_7
REMARK    5  A    between atoms: C_8  and  C_9
REMARK                            x       y       z     vdW  Elec       q    Type
REMARK                         _______ _______ _______ _____ _____    ______ ____
ROOT
ATOM      1  C   UNL     1      -9.595  16.901  67.423  0.00  0.00    +0.155 C 
ATOM      2  C   UNL     1      -8.321  17.130  68.113  0.00  0.00    +0.241 C 
ATOM      3  O   UNL     1      -7.801  16.123  68.683  0.00  0.00    -0.274 OA
ATOM      4  N   UNL     1      -7.404  17.970  67.394  0.00  0.00    -0.210 N 
ATOM      5  C   UNL     1      -6.008  18.079  67.758  0.00  0.00    +0.124 C 
ATOM      6  C   UNL     1      -7.809  18.708  66.237  0.00  0.00    +0.336 C 
ATOM      7  O   UNL     1      -7.032  19.505  65.664  0.00  0.00    -0.250 OA
ATOM      8  N   UNL     1      -9.208  18.993  66.122  0.00  0.00    -0.127 NA
ATOM      9  C   UNL     1     -10.137  18.136  66.801  0.00  0.00    +0.258 C 
ATOM     10  O   UNL     1     -11.136  18.650  67.394  0.00  0.00    -0.272 OA
ENDROOT
BRANCH   1  11
ATOM     11  C   UNL     1      -9.082  15.971  66.156  0.00  0.00    +0.081 C 
ATOM     12  C   UNL     1      -9.379  14.544  66.945  0.00  0.00    +0.015 C 
BRANCH  11  13
ATOM     13  C   UNL     1     -10.538  15.994  65.481  0.00  0.00    -0.091 C 
ATOM     14  C   UNL     1     -11.207  15.282  64.752  0.00  0.00    -0.091 C 
BRANCH  14  15
ATOM     15  C   UNL     1     -12.036  14.125  64.351  0.00  0.00    +0.076 C 
ATOM     16  C   UNL     1     -12.729  13.640  65.588  0.00  0.00    +0.015 C 
ENDBRANCH  14  15
ENDBRANCH  11  13
ENDBRANCH   1  11
BRANCH   1  17
ATOM     17  C   UNL     1     -10.636  16.169  68.139  0.00  0.00    +0.044 C 
BRANCH  17  19
ATOM     18  C   UNL     1     -11.419  16.011  70.449  0.00  0.00    -0.005 C 
ATOM     19  C   UNL     1     -10.665  16.621  69.544  0.00  0.00    -0.025 C 
ENDBRANCH  17  19
ENDBRANCH   1  17
TORSDOF 5
ENDMDL
MODEL 6
REMARK VINA RESULT:      -5.1      2.192      5.033
REMARK  Name = 
REMARK  5 active torsions:
REMARK  status: ('A' for Active; 'I' for Inactive)
REMARK    1  A    between atoms: C_2  and  C_3
REMARK    2  A    between atoms: C_3  and  C_4
REMARK    3  A    between atoms: C_4  and  C_5
REMARK    4  A    between atoms: C_5  and  C_7
REMARK    5  A    between atoms: C_8  and  C_9
REMARK                            x       y       z     vdW  Elec       q    Type
REMARK                         _______ _______ _______ _____ _____    ______ ____
ROOT
ATOM      1  C   UNL     1     -10.235  12.020  67.083  0.00  0.00    +0.155 C 
ATOM      2  C   UNL     1     -10.239  11.912  65.620  0.00  0.00    +0.241 C 
ATOM      3  O   UNL     1      -9.864  10.800  65.137  0.00  0.00    -0.274 OA
ATOM      4  N   UNL     1     -11.387  12.499  64.989  0.00  0.00    -0.210 N 
ATOM      5  C   UNL     1     -11.722  12.248  63.603  0.00  0.00    +0.124 C 
ATOM      6  C   UNL     1     -12.302  13.328  65.713  0.00  0.00    +0.336 C 
ATOM      7  O   UNL     1     -13.253  13.907  65.141  0.00  0.00    -0.250 OA
ATOM      8  N   UNL     1     -11.793  13.959  66.893  0.00  0.00    -0.127 NA
ATOM      9  C   UNL     1     -10.672  13.358  67.557  0.00  0.00    +0.258 C 
ATOM     10  O   UNL     1      -9.747  14.102  68.010  0.00  0.00    -0.272 OA
ENDROOT
BRANCH   1  11
ATOM     11  C   UNL     1     -11.484  11.003  67.458  0.00  0.00    +0.081 C 
ATOM     12  C   UNL     1     -10.485   9.712  67.750  0.00  0.00    +0.015 C 
BRANCH  11  13
ATOM     13  C   UNL     1     -11.469  11.466  68.994  0.00  0.00    -0.091 C 
ATOM     14  C   UNL     1     -12.064  11.199  70.024  0.00  0.00    -0.091 C 
BRANCH  14  15
ATOM     15  C   UNL     1     -12.468  10.412  71.210  0.00  0.00    +0.076 C 
ATOM     16  C   UNL     1     -11.423   9.354  71.402  0.00  0.00    +0.015 C 
ENDBRANCH  14  15
ENDBRANCH  11  13
ENDBRANCH   1  11
BRANCH   1  17
ATOM     17  C   UNL     1      -9.044  11.568  67.797  0.00  0.00    +0.044 C 
BRANCH  17  19
ATOM     18  C   UNL     1      -6.774  11.355  66.917  0.00  0.00    -0.005 C 
ATOM     19  C   UNL     1      -7.846  12.109  67.126  0.00  0.00    -0.025 C 
ENDBRANCH  17  19
ENDBRANCH   1  17
TORSDOF 5
ENDMDL
MODEL 7
REMARK VINA RESULT:      -5.0      2.623      4.268
REMARK  Name = 
REMARK  5 active torsions:
REMARK  status: ('A' for Active; 'I' for Inactive)
REMARK    1  A    between atoms: C_2  and  C_3
REMARK    2  A    between atoms: C_3  and  C_4
REMARK    3  A    between atoms: C_4  and  C_5
REMARK    4  A    between atoms: C_5  and  C_7
REMARK    5  A    between atoms: C_8  and  C_9
REMARK                            x       y       z     vdW  Elec       q    Type
REMARK                         _______ _______ _______ _____ _____    ______ ____
ROOT
ATOM      1  C   UNL     1     -10.518  14.241  67.416  0.00  0.00    +0.155 C 
ATOM      2  C   UNL     1     -10.757  15.269  68.435  0.00  0.00    +0.241 C 
ATOM      3  O   UNL     1     -10.998  16.440  68.007  0.00  0.00    -0.274 OA
ATOM      4  N   UNL     1     -11.580  14.836  69.529  0.00  0.00    -0.210 N 
ATOM      5  C   UNL     1     -12.166  15.764  70.472  0.00  0.00    +0.124 C 
ATOM      6  C   UNL     1     -11.913  13.457  69.718  0.00  0.00    +0.336 C 
ATOM      7  O   UNL     1     -12.558  13.071  70.720  0.00  0.00    -0.250 OA
ATOM      8  N   UNL     1     -11.025  12.500  69.129  0.00  0.00    -0.127 NA
ATOM      9  C   UNL     1     -10.229  12.910  68.008  0.00  0.00    +0.258 C 
ATOM     10  O   UNL     1      -9.017  12.536  67.938  0.00  0.00    -0.272 OA
ENDROOT
BRANCH   1  11
ATOM     11  C   UNL     1     -12.034  14.105  66.772  0.00  0.00    +0.081 C 
ATOM     12  C   UNL     1     -11.655  14.992  65.423  0.00  0.00    +0.015 C 
BRANCH  11  13
ATOM     13  C   UNL     1     -11.664  12.715  66.060  0.00  0.00    -0.091 C 
ATOM     14  C   UNL     1     -11.864  12.166  64.990  0.00  0.00    -0.091 C 
BRANCH  14  15
ATOM     15  C   UNL     1     -11.734  11.898  63.542  0.00  0.00    +0.076 C 
ATOM     16  C   UNL     1     -10.329  11.429  63.314  0.00  0.00    +0.015 C 
ENDBRANCH  14  15
ENDBRANCH  11  13
ENDBRANCH   1  11
BRANCH   1  17
ATOM     17  C   UNL     1      -9.586  14.555  66.337  0.00  0.00    +0.044 C 
BRANCH  17  19
ATOM     18  C   UNL     1      -7.916  16.339  66.393  0.00  0.00    -0.005 C 
ATOM     19  C   UNL     1      -8.393  15.212  66.906  0.00  0.00    -0.025 C 
ENDBRANCH  17  19
ENDBRANCH   1  17
TORSDOF 5
ENDMDL
MODEL 8
REMARK VINA RESULT:      -4.9      2.813      5.915
REMARK  Name = 
REMARK  5 active torsions:
REMARK  status: ('A' for Active; 'I' for Inactive)
REMARK    1  A    between atoms: C_2  and  C_3
REMARK    2  A    between atoms: C_3  and  C_4
REMARK    3  A    between atoms: C_4  and  C_5
REMARK    4  A    between atoms: C_5  and  C_7
REMARK    5  A    between atoms: C_8  and  C_9
REMARK                            x       y       z     vdW  Elec       q    Type
REMARK                         _______ _______ _______ _____ _____    ______ ____
ROOT
ATOM      1  C   UNL     1     -10.740  14.103  67.341  0.00  0.00    +0.155 C 
ATOM      2  C   UNL     1      -9.517  13.537  66.761  0.00  0.00    +0.241 C 
ATOM      3  O   UNL     1      -8.424  14.079  67.112  0.00  0.00    -0.274 OA
ATOM      4  N   UNL     1      -9.500  12.102  66.706  0.00  0.00    -0.210 N 
ATOM      5  C   UNL     1      -8.290  11.352  66.446  0.00  0.00    +0.124 C 
ATOM      6  C   UNL     1     -10.675  11.326  66.961  0.00  0.00    +0.336 C 
ATOM      7  O   UNL     1     -10.678  10.081  66.829  0.00  0.00    -0.250 OA
ATOM      8  N   UNL     1     -11.930  11.988  66.767  0.00  0.00    -0.127 NA
ATOM      9  C   UNL     1     -11.968  13.419  66.861  0.00  0.00    +0.258 C 
ATOM     10  O   UNL     1     -12.667  14.077  66.030  0.00  0.00    -0.272 OA
ENDROOT
BRANCH   1  11
ATOM     11  C   UNL     1     -10.569  13.626  68.915  0.00  0.00    +0.081 C 
ATOM     12  C   UNL     1      -9.926  15.077  69.395  0.00  0.00    +0.015 C 
BRANCH  11  13
ATOM     13  C   UNL     1     -12.067  14.081  69.270  0.00  0.00    -0.091 C 
ATOM     14  C   UNL     1     -12.674  14.521  70.231  0.00  0.00    -0.091 C 
BRANCH  14  15
ATOM     15  C   UNL     1     -13.103  15.506  71.248  0.00  0.00    +0.076 C 
ATOM     16  C   UNL     1     -14.378  14.988  71.840  0.00  0.00    +0.015 C 
ENDBRANCH  14  15
ENDBRANCH  11  13
ENDBRANCH   1  11
BRANCH   1  17
ATOM     17  C   UNL     1     -10.898  15.554  67.315  0.00  0.00    +0.044 C 
BRANCH  17  19
ATOM     18  C   UNL     1      -9.711  17.263  66.031  0.00  0.00    -0.005 C 
ATOM     19  C   UNL     1     -10.313  16.081  66.066  0.00  0.00    -0.025 C 
ENDBRANCH  17  19
ENDBRANCH   1  17
TORSDOF 5
ENDMDL
MODEL 9
REMARK VINA RESULT:      -4.8      2.217      4.790
REMARK  Name = 
REMARK  5 active torsions:
REMARK  status: ('A' for Active; 'I' for Inactive)
REMARK    1  A    between atoms: C_2  and  C_3
REMARK    2  A    between atoms: C_3  and  C_4
REMARK    3  A    between atoms: C_4  and  C_5
REMARK    4  A    between atoms: C_5  and  C_7
REMARK    5  A    between atoms: C_8  and  C_9
REMARK                            x       y       z     vdW  Elec       q    Type
REMARK                         _______ _______ _______ _____ _____    ______ ____
ROOT
ATOM      1  C   UNL     1     -10.844  13.775  66.430  0.00  0.00    +0.155 C 
ATOM      2  C   UNL     1     -11.975  13.257  65.653  0.00  0.00    +0.241 C 
ATOM      3  O   UNL     1     -12.894  14.087  65.375  0.00  0.00    -0.274 OA
ATOM      4  N   UNL     1     -11.602  12.374  64.584  0.00  0.00    -0.210 N 
ATOM      5  C   UNL     1     -12.525  11.993  63.537  0.00  0.00    +0.124 C 
ATOM      6  C   UNL     1     -10.271  11.861  64.463  0.00  0.00    +0.336 C 
ATOM      7  O   UNL     1      -9.971  11.025  63.581  0.00  0.00    -0.250 OA
ATOM      8  N   UNL     1      -9.491  11.825  65.663  0.00  0.00    -0.127 NA
ATOM      9  C   UNL     1      -9.828  12.732  66.722  0.00  0.00    +0.258 C 
ATOM     10  O   UNL     1      -9.804  12.319  67.924  0.00  0.00    -0.272 OA
ENDROOT
BRANCH   1  11
ATOM     11  C   UNL     1     -10.138  14.758  65.303  0.00  0.00    +0.081 C 
ATOM     12  C   UNL     1     -10.993  16.096  65.779  0.00  0.00    +0.015 C 
BRANCH  11  13
ATOM     13  C   UNL     1      -8.913  15.092  66.285  0.00  0.00    -0.091 C 
ATOM     14  C   UNL     1      -8.122  16.002  66.466  0.00  0.00    -0.091 C 
BRANCH  14  15
ATOM     15  C   UNL     1      -7.640  17.335  66.889  0.00  0.00    +0.076 C 
ATOM     16  C   UNL     1      -8.490  17.753  68.051  0.00  0.00    +0.015 C 
ENDBRANCH  14  15
ENDBRANCH  11  13
ENDBRANCH   1  11
BRANCH   1  17
ATOM     17  C   UNL     1     -11.140  14.574  67.615  0.00  0.00    +0.044 C 
BRANCH  17  19
ATOM     18  C   UNL     1     -12.185  14.098  69.773  0.00  0.00    -0.005 C 
ATOM     19  C   UNL     1     -12.075  13.826  68.479  0.00  0.00    -0.025 C 
ENDBRANCH  17  19
ENDBRANCH   1  17
TORSDOF 5
ENDMDL
