MODEL 1
REMARK VINA RESULT:      -8.8      0.000      0.000
REMARK  Name = 
REMARK  12 active torsions:
REMARK  status: ('A' for Active; 'I' for Inactive)
REMARK    1  A    between atoms: C_2  and  C_5
REMARK    2  A    between atoms: C_10  and  C_11
REMARK    3  A    between atoms: C_11  and  C_12
REMARK    4  A    between atoms: C_12  and  C_13
REMARK    5  A    between atoms: C_13  and  S_14
REMARK    6  A    between atoms: C_13  and  C_23
REMARK    7  A    between atoms: S_14  and  C_15
REMARK    8  A    between atoms: C_15  and  C_16
REMARK    9  A    between atoms: C_16  and  C_17
REMARK   10  A    between atoms: C_17  and  C_18
REMARK   11  A    between atoms: C_27  and  C_28
REMARK   12  A    between atoms: C_29  and  C_30
REMARK                            x       y       z     vdW  Elec       q    Type
REMARK                         _______ _______ _______ _____ _____    ______ ____
ROOT
ATOM      1  C   UNL     1     -11.872  13.660  66.440  0.00  0.00    +0.070 C 
ENDROOT
BRANCH   1   2
ATOM      2  C   UNL     1     -10.981  12.585  65.733  0.00  0.00    -0.012 A 
ATOM      3  C   UNL     1     -11.044  11.283  66.125  0.00  0.00    -0.003 A 
ATOM      4  C   UNL     1     -10.239  10.371  65.453  0.00  0.00    -0.000 A 
ATOM      5  C   UNL     1     -10.195  10.534  64.073  0.00  0.00    -0.000 A 
ATOM      6  C   UNL     1     -10.421  11.788  63.550  0.00  0.00    -0.000 A 
ATOM      7  C   UNL     1     -10.783  12.825  64.378  0.00  0.00    -0.003 A 
BRANCH   4   8
ATOM      8  C   UNL     1      -9.742   9.156  66.082  0.00  0.00    +0.002 C 
ATOM      9  C   UNL     1     -10.417   8.429  66.940  0.00  0.00    +0.019 C 
BRANCH   9  10
ATOM     10  C   UNL     1      -9.897   8.030  68.256  0.00  0.00    +0.081 A 
ATOM     11  N   UNL     1     -10.736   7.279  69.008  0.00  0.00    -0.245 NA
ATOM     12  C   UNL     1     -10.804   7.398  70.354  0.00  0.00    +0.082 A 
ATOM     13  C   UNL     1     -10.079   8.355  71.015  0.00  0.00    +0.018 A 
ATOM     14  C   UNL     1     -10.152   8.395  72.397  0.00  0.00    +0.002 A 
ATOM     15  C   UNL     1     -10.787   7.380  73.070  0.00  0.00    +0.011 A 
ATOM     16  C   UNL     1     -11.257   6.255  72.411  0.00  0.00    +0.059 A 
ATOM     17 CL   UNL     1     -11.467   4.714  73.231  0.00  0.00    -0.082 Cl
ATOM     18  C   UNL     1      -9.105   9.042  70.318  0.00  0.00    +0.003 A 
ATOM     19  C   UNL     1     -11.447   6.383  71.042  0.00  0.00    +0.030 A 
ATOM     20  C   UNL     1      -9.028   8.858  68.946  0.00  0.00    +0.019 A 
ENDBRANCH   9  10
ENDBRANCH   4   8
ENDBRANCH   1   2
BRANCH   1  21
ATOM     21  S   UNL     1     -10.883  15.168  65.795  0.00  0.00    -0.137 S 
BRANCH  21  22
ATOM     22  C   UNL     1      -9.374  15.302  66.754  0.00  0.00    +0.058 C 
BRANCH  22  23
ATOM     23  C   UNL     1      -9.275  16.558  67.566  0.00  0.00    +0.021 C 
ATOM     24  C   UNL     1      -8.656  16.282  68.964  0.00  0.00    +0.001 C 
ATOM     25  C   UNL     1      -7.993  17.154  67.971  0.00  0.00    +0.001 C 
BRANCH  23  26
ATOM     26  C   UNL     1     -10.582  17.311  67.692  0.00  0.00    +0.115 C 
BRANCH  26  27
ATOM     27  C   UNL     1     -10.402  18.631  67.012  0.00  0.00    +0.365 C 
ATOM     28  O   UNL     1     -10.768  19.772  67.719  0.00  0.00    -0.246 OA
ATOM     29  O   UNL     1     -10.421  18.736  65.750  0.00  0.00    -0.246 OA
ENDBRANCH  26  27
ENDBRANCH  23  26
ENDBRANCH  22  23
ENDBRANCH  21  22
ENDBRANCH   1  21
BRANCH   1  30
ATOM     30  C   UNL     1     -11.097  13.592  67.835  0.00  0.00    +0.020 C 
BRANCH  30  31
ATOM     31  C   UNL     1     -12.023  14.124  68.902  0.00  0.00    +0.027 C 
BRANCH  31  33
ATOM     32  C   UNL     1     -12.721  13.504  71.153  0.00  0.00    +0.001 A 
ATOM     33  C   UNL     1     -11.974  13.149  70.036  0.00  0.00    -0.024 A 
ATOM     34  C   UNL     1     -11.785  11.812  69.722  0.00  0.00    -0.005 A 
ATOM     35  C   UNL     1     -12.362  10.834  70.522  0.00  0.00    -0.000 A 
ATOM     36  C   UNL     1     -13.143  11.179  71.615  0.00  0.00    -0.000 A 
ATOM     37  C   UNL     1     -13.138  12.507  72.024  0.00  0.00    -0.002 A 
BRANCH  32  39
ATOM     38  C   UNL     1     -11.642  15.208  71.502  0.00  0.00    +0.038 C 
ATOM     39  C   UNL     1     -12.499  14.885  71.687  0.00  0.00    +0.145 C 
ATOM     40  O   UNL     1     -13.483  15.730  71.150  0.00  0.00    -0.221 OA
ATOM     41  C   UNL     1     -12.800  14.799  73.180  0.00  0.00    +0.038 C 
ENDBRANCH  32  39
ENDBRANCH  31  33
ENDBRANCH  30  31
ENDBRANCH   1  30
TORSDOF 12
ENDMDL
MODEL 2
REMARK VINA RESULT:      -8.3      0.970      1.180
REMARK  Name = 
REMARK  12 active torsions:
REMARK  status: ('A' for Active; 'I' for Inactive)
REMARK    1  A    between atoms: C_2  and  C_5
REMARK    2  A    between atoms: C_10  and  C_11
REMARK    3  A    between atoms: C_11  and  C_12
REMARK    4  A    between atoms: C_12  and  C_13
REMARK    5  A    between atoms: C_13  and  S_14
REMARK    6  A    between atoms: C_13  and  C_23
REMARK    7  A    between atoms: S_14  and  C_15
REMARK    8  A    between atoms: C_15  and  C_16
REMARK    9  A    between atoms: C_16  and  C_17
REMARK   10  A    between atoms: C_17  and  C_18
REMARK   11  A    between atoms: C_27  and  C_28
REMARK   12  A    between atoms: C_29  and  C_30
REMARK                            x       y       z     vdW  Elec       q    Type
REMARK                         _______ _______ _______ _____ _____    ______ ____
ROOT
ATOM      1  C   UNL     1     -11.263  13.972  66.453  0.00  0.00    +0.070 C 
ENDROOT
BRANCH   1   2
ATOM      2  C   UNL     1     -10.585  12.763  65.726  0.00  0.00    -0.012 A 
ATOM      3  C   UNL     1     -10.800  11.494  66.172  0.00  0.00    -0.003 A 
ATOM      4  C   UNL     1     -10.181  10.459  65.480  0.00  0.00    -0.000 A 
ATOM      5  C   UNL     1     -10.219  10.575  64.095  0.00  0.00    -0.000 A 
ATOM      6  C   UNL     1     -10.306  11.834  63.541  0.00  0.00    -0.000 A 
ATOM      7  C   UNL     1     -10.458  12.934  64.353  0.00  0.00    -0.003 A 
BRANCH   4   8
ATOM      8  C   UNL     1      -9.813   9.203  66.118  0.00  0.00    +0.002 C 
ATOM      9  C   UNL     1     -10.518   8.602  67.046  0.00  0.00    +0.019 C 
BRANCH   9  10
ATOM     10  C   UNL     1      -9.965   8.170  68.337  0.00  0.00    +0.081 A 
ATOM     11  N   UNL     1     -10.784   7.400  69.092  0.00  0.00    -0.245 NA
ATOM     12  C   UNL     1     -10.817   7.483  70.442  0.00  0.00    +0.082 A 
ATOM     13  C   UNL     1     -10.076   8.424  71.108  0.00  0.00    +0.018 A 
ATOM     14  C   UNL     1     -10.113   8.428  72.492  0.00  0.00    +0.002 A 
ATOM     15  C   UNL     1     -10.731   7.396  73.154  0.00  0.00    +0.011 A 
ATOM     16  C   UNL     1     -11.217   6.288  72.479  0.00  0.00    +0.059 A 
ATOM     17 CL   UNL     1     -11.406   4.726  73.264  0.00  0.00    -0.082 Cl
ATOM     18  C   UNL     1      -9.121   9.130  70.404  0.00  0.00    +0.003 A 
ATOM     19  C   UNL     1     -11.443   6.451  71.119  0.00  0.00    +0.030 A 
ATOM     20  C   UNL     1      -9.078   8.981  69.026  0.00  0.00    +0.019 A 
ENDBRANCH   9  10
ENDBRANCH   4   8
ENDBRANCH   1   2
BRANCH   1  21
ATOM     21  S   UNL     1      -9.780  15.165  66.240  0.00  0.00    -0.137 S 
BRANCH  21  22
ATOM     22  C   UNL     1     -10.392  16.847  66.342  0.00  0.00    +0.058 C 
BRANCH  22  23
ATOM     23  C   UNL     1      -9.602  17.730  67.260  0.00  0.00    +0.021 C 
ATOM     24  C   UNL     1     -10.201  17.737  68.694  0.00  0.00    +0.001 C 
ATOM     25  C   UNL     1      -8.847  17.218  68.413  0.00  0.00    +0.001 C 
BRANCH  23  26
ATOM     26  C   UNL     1      -9.415  19.141  66.744  0.00  0.00    +0.115 C 
BRANCH  26  27
ATOM     27  C   UNL     1      -8.015  19.245  66.230  0.00  0.00    +0.365 C 
ATOM     28  O   UNL     1      -7.510  18.160  65.521  0.00  0.00    -0.246 OA
ATOM     29  O   UNL     1      -7.153  19.983  66.794  0.00  0.00    -0.246 OA
ENDBRANCH  26  27
ENDBRANCH  23  26
ENDBRANCH  22  23
ENDBRANCH  21  22
ENDBRANCH   1  21
BRANCH   1  30
ATOM     30  C   UNL     1     -10.839  13.511  67.923  0.00  0.00    +0.020 C 
BRANCH  30  31
ATOM     31  C   UNL     1     -11.874  14.039  68.886  0.00  0.00    +0.027 C 
BRANCH  31  33
ATOM     32  C   UNL     1     -12.677  13.502  71.123  0.00  0.00    +0.001 A 
ATOM     33  C   UNL     1     -11.905  13.091  70.043  0.00  0.00    -0.024 A 
ATOM     34  C   UNL     1     -11.758  11.740  69.767  0.00  0.00    -0.005 A 
ATOM     35  C   UNL     1     -12.402  10.805  70.568  0.00  0.00    -0.000 A 
ATOM     36  C   UNL     1     -13.207  11.207  71.623  0.00  0.00    -0.000 A 
ATOM     37  C   UNL     1     -13.164  12.543  72.001  0.00  0.00    -0.002 A 
BRANCH  32  39
ATOM     38  C   UNL     1     -11.564  15.194  71.420  0.00  0.00    +0.038 C 
ATOM     39  C   UNL     1     -12.420  14.885  71.634  0.00  0.00    +0.145 C 
ATOM     40  O   UNL     1     -13.407  15.738  71.114  0.00  0.00    -0.221 OA
ATOM     41  C   UNL     1     -12.679  14.823  73.135  0.00  0.00    +0.038 C 
ENDBRANCH  32  39
ENDBRANCH  31  33
ENDBRANCH  30  31
ENDBRANCH   1  30
TORSDOF 12
ENDMDL
MODEL 3
REMARK VINA RESULT:      -8.3      1.183      1.527
REMARK  Name = 
REMARK  12 active torsions:
REMARK  status: ('A' for Active; 'I' for Inactive)
REMARK    1  A    between atoms: C_2  and  C_5
REMARK    2  A    between atoms: C_10  and  C_11
REMARK    3  A    between atoms: C_11  and  C_12
REMARK    4  A    between atoms: C_12  and  C_13
REMARK    5  A    between atoms: C_13  and  S_14
REMARK    6  A    between atoms: C_13  and  C_23
REMARK    7  A    between atoms: S_14  and  C_15
REMARK    8  A    between atoms: C_15  and  C_16
REMARK    9  A    between atoms: C_16  and  C_17
REMARK   10  A    between atoms: C_17  and  C_18
REMARK   11  A    between atoms: C_27  and  C_28
REMARK   12  A    between atoms: C_29  and  C_30
REMARK                            x       y       z     vdW  Elec       q    Type
REMARK                         _______ _______ _______ _____ _____    ______ ____
ROOT
ATOM      1  C   UNL     1     -11.647  13.958  66.570  0.00  0.00    +0.070 C 
ENDROOT
BRANCH   1   2
ATOM      2  C   UNL     1     -10.847  12.833  65.832  0.00  0.00    -0.012 A 
ATOM      3  C   UNL     1     -10.985  11.534  66.219  0.00  0.00    -0.003 A 
ATOM      4  C   UNL     1     -10.259  10.577  65.520  0.00  0.00    -0.000 A 
ATOM      5  C   UNL     1     -10.241  10.747  64.141  0.00  0.00    -0.000 A 
ATOM      6  C   UNL     1     -10.398  12.017  63.630  0.00  0.00    -0.000 A 
ATOM      7  C   UNL     1     -10.670  13.069  64.474  0.00  0.00    -0.003 A 
BRANCH   4   8
ATOM      8  C   UNL     1      -9.826   9.327  66.128  0.00  0.00    +0.002 C 
ATOM      9  C   UNL     1     -10.516   8.650  67.014  0.00  0.00    +0.019 C 
BRANCH   9  10
ATOM     10  C   UNL     1      -9.972   8.211  68.307  0.00  0.00    +0.081 A 
ATOM     11  N   UNL     1     -10.798   7.439  69.053  0.00  0.00    -0.245 NA
ATOM     12  C   UNL     1     -10.840   7.517  70.403  0.00  0.00    +0.082 A 
ATOM     13  C   UNL     1     -10.102   8.452  71.078  0.00  0.00    +0.018 A 
ATOM     14  C   UNL     1     -10.148   8.451  72.462  0.00  0.00    +0.002 A 
ATOM     15  C   UNL     1     -10.772   7.418  73.116  0.00  0.00    +0.011 A 
ATOM     16  C   UNL     1     -11.257   6.314  72.433  0.00  0.00    +0.059 A 
ATOM     17 CL   UNL     1     -11.455   4.749  73.210  0.00  0.00    -0.082 Cl
ATOM     18  C   UNL     1      -9.140   9.159  70.384  0.00  0.00    +0.003 A 
ATOM     19  C   UNL     1     -11.473   6.483  71.072  0.00  0.00    +0.030 A 
ATOM     20  C   UNL     1      -9.088   9.016  69.005  0.00  0.00    +0.019 A 
ENDBRANCH   9  10
ENDBRANCH   4   8
ENDBRANCH   1   2
BRANCH   1  21
ATOM     21  S   UNL     1     -10.354  15.335  66.254  0.00  0.00    -0.137 S 
BRANCH  21  22
ATOM     22  C   UNL     1      -9.500  15.669  67.795  0.00  0.00    +0.058 C 
BRANCH  22  23
ATOM     23  C   UNL     1      -8.019  15.451  67.733  0.00  0.00    +0.021 C 
ATOM     24  C   UNL     1      -7.548  14.450  68.825  0.00  0.00    +0.001 C 
ATOM     25  C   UNL     1      -7.413  14.157  67.383  0.00  0.00    +0.001 C 
BRANCH  23  26
ATOM     26  C   UNL     1      -7.207  16.727  67.782  0.00  0.00    +0.115 C 
BRANCH  26  27
ATOM     27  C   UNL     1      -6.799  17.048  66.380  0.00  0.00    +0.365 C 
ATOM     28  O   UNL     1      -5.438  17.038  66.090  0.00  0.00    -0.246 OA
ATOM     29  O   UNL     1      -7.516  17.772  65.627  0.00  0.00    -0.246 OA
ENDBRANCH  26  27
ENDBRANCH  23  26
ENDBRANCH  22  23
ENDBRANCH  21  22
ENDBRANCH   1  21
BRANCH   1  30
ATOM     30  C   UNL     1     -11.091  13.599  68.024  0.00  0.00    +0.020 C 
BRANCH  30  31
ATOM     31  C   UNL     1     -12.089  14.108  69.035  0.00  0.00    +0.027 C 
BRANCH  31  33
ATOM     32  C   UNL     1     -12.813  13.531  71.289  0.00  0.00    +0.001 A 
ATOM     33  C   UNL     1     -12.058  13.152  70.186  0.00  0.00    -0.024 A 
ATOM     34  C   UNL     1     -11.876  11.809  69.896  0.00  0.00    -0.005 A 
ATOM     35  C   UNL     1     -12.469  10.848  70.707  0.00  0.00    -0.000 A 
ATOM     36  C   UNL     1     -13.257  11.218  71.786  0.00  0.00    -0.000 A 
ATOM     37  C   UNL     1     -13.245  12.553  72.173  0.00  0.00    -0.002 A 
BRANCH  32  39
ATOM     38  C   UNL     1     -11.727  15.237  71.610  0.00  0.00    +0.038 C 
ATOM     39  C   UNL     1     -12.585  14.919  71.803  0.00  0.00    +0.145 C 
ATOM     40  O   UNL     1     -13.568  15.759  71.257  0.00  0.00    -0.221 OA
ATOM     41  C   UNL     1     -12.881  14.856  73.297  0.00  0.00    +0.038 C 
ENDBRANCH  32  39
ENDBRANCH  31  33
ENDBRANCH  30  31
ENDBRANCH   1  30
TORSDOF 12
ENDMDL
MODEL 4
REMARK VINA RESULT:      -7.7      2.178      6.079
REMARK  Name = 
REMARK  12 active torsions:
REMARK  status: ('A' for Active; 'I' for Inactive)
REMARK    1  A    between atoms: C_2  and  C_5
REMARK    2  A    between atoms: C_10  and  C_11
REMARK    3  A    between atoms: C_11  and  C_12
REMARK    4  A    between atoms: C_12  and  C_13
REMARK    5  A    between atoms: C_13  and  S_14
REMARK    6  A    between atoms: C_13  and  C_23
REMARK    7  A    between atoms: S_14  and  C_15
REMARK    8  A    between atoms: C_15  and  C_16
REMARK    9  A    between atoms: C_16  and  C_17
REMARK   10  A    between atoms: C_17  and  C_18
REMARK   11  A    between atoms: C_27  and  C_28
REMARK   12  A    between atoms: C_29  and  C_30
REMARK                            x       y       z     vdW  Elec       q    Type
REMARK                         _______ _______ _______ _____ _____    ______ ____
ROOT
ATOM      1  C   UNL     1     -11.138  15.612  68.089  0.00  0.00    +0.070 C 
ENDROOT
BRANCH   1   2
ATOM      2  C   UNL     1     -11.947  14.803  69.158  0.00  0.00    -0.012 A 
ATOM      3  C   UNL     1     -11.629  13.504  69.413  0.00  0.00    -0.003 A 
ATOM      4  C   UNL     1     -12.374  12.840  70.381  0.00  0.00    -0.000 A 
ATOM      5  C   UNL     1     -12.641  13.582  71.526  0.00  0.00    -0.000 A 
ATOM      6  C   UNL     1     -12.689  14.955  71.426  0.00  0.00    -0.000 A 
ATOM      7  C   UNL     1     -12.373  15.570  70.236  0.00  0.00    -0.003 A 
BRANCH   4   8
ATOM      8  C   UNL     1     -12.582  11.400  70.354  0.00  0.00    +0.002 C 
ATOM      9  C   UNL     1     -12.516  10.615  71.403  0.00  0.00    +0.019 C 
BRANCH   9  10
ATOM     10  C   UNL     1     -11.686   9.404  71.463  0.00  0.00    +0.081 A 
ATOM     11  N   UNL     1     -10.853   9.218  70.412  0.00  0.00    -0.245 NA
ATOM     12  C   UNL     1     -10.574   7.991  69.916  0.00  0.00    +0.082 A 
ATOM     13  C   UNL     1     -11.198   6.875  70.407  0.00  0.00    +0.018 A 
ATOM     14  C   UNL     1     -10.836   5.641  69.894  0.00  0.00    +0.002 A 
ATOM     15  C   UNL     1      -9.752   5.550  69.056  0.00  0.00    +0.011 A 
ATOM     16  C   UNL     1      -8.937   6.642  68.802  0.00  0.00    +0.059 A 
ATOM     17 CL   UNL     1      -7.260   6.459  68.308  0.00  0.00    -0.082 Cl
ATOM     18  C   UNL     1     -11.939   6.989  71.567  0.00  0.00    +0.003 A 
ATOM     19  C   UNL     1      -9.487   7.889  69.066  0.00  0.00    +0.030 A 
ATOM     20  C   UNL     1     -12.161   8.259  72.080  0.00  0.00    +0.019 A 
ENDBRANCH   9  10
ENDBRANCH   4   8
ENDBRANCH   1   2
BRANCH   1  21
ATOM     21  S   UNL     1      -9.851  14.233  67.756  0.00  0.00    -0.137 S 
BRANCH  21  22
ATOM     22  C   UNL     1      -9.826  13.900  65.995  0.00  0.00    +0.058 C 
BRANCH  22  23
ATOM     23  C   UNL     1     -10.684  12.743  65.579  0.00  0.00    +0.021 C 
ATOM     24  C   UNL     1      -9.839  11.455  65.375  0.00  0.00    +0.001 C 
ATOM     25  C   UNL     1     -10.884  11.551  66.416  0.00  0.00    +0.001 C 
BRANCH  23  26
ATOM     26  C   UNL     1     -11.546  13.023  64.367  0.00  0.00    +0.115 C 
BRANCH  26  27
ATOM     27  C   UNL     1     -12.416  14.192  64.700  0.00  0.00    +0.365 C 
ATOM     28  O   UNL     1     -13.496  13.967  65.547  0.00  0.00    -0.246 OA
ATOM     29  O   UNL     1     -12.528  15.181  63.917  0.00  0.00    -0.246 OA
ENDBRANCH  26  27
ENDBRANCH  23  26
ENDBRANCH  22  23
ENDBRANCH  21  22
ENDBRANCH   1  21
BRANCH   1  30
ATOM     30  C   UNL     1     -10.224  16.378  69.152  0.00  0.00    +0.020 C 
BRANCH  30  31
ATOM     31  C   UNL     1      -8.881  16.626  68.509  0.00  0.00    +0.027 C 
BRANCH  31  33
ATOM     32  C   UNL     1      -8.416  18.347  66.849  0.00  0.00    +0.001 A 
ATOM     33  C   UNL     1      -8.844  18.076  68.142  0.00  0.00    -0.024 A 
ATOM     34  C   UNL     1      -9.755  18.916  68.764  0.00  0.00    -0.005 A 
ATOM     35  C   UNL     1     -10.248  20.019  68.076  0.00  0.00    -0.000 A 
ATOM     36  C   UNL     1      -9.856  20.275  66.771  0.00  0.00    -0.000 A 
ATOM     37  C   UNL     1      -8.792  19.544  66.256  0.00  0.00    -0.002 A 
BRANCH  32  39
ATOM     38  C   UNL     1      -7.172  16.772  66.448  0.00  0.00    +0.038 C 
ATOM     39  C   UNL     1      -7.130  17.706  66.428  0.00  0.00    +0.145 C 
ATOM     40  O   UNL     1      -6.806  18.167  65.142  0.00  0.00    -0.221 OA
ATOM     41  C   UNL     1      -6.063  18.281  67.352  0.00  0.00    +0.038 C 
ENDBRANCH  32  39
ENDBRANCH  31  33
ENDBRANCH  30  31
ENDBRANCH   1  30
TORSDOF 12
ENDMDL
MODEL 5
REMARK VINA RESULT:      -7.6      2.235      6.027
REMARK  Name = 
REMARK  12 active torsions:
REMARK  status: ('A' for Active; 'I' for Inactive)
REMARK    1  A    between atoms: C_2  and  C_5
REMARK    2  A    between atoms: C_10  and  C_11
REMARK    3  A    between atoms: C_11  and  C_12
REMARK    4  A    between atoms: C_12  and  C_13
REMARK    5  A    between atoms: C_13  and  S_14
REMARK    6  A    between atoms: C_13  and  C_23
REMARK    7  A    between atoms: S_14  and  C_15
REMARK    8  A    between atoms: C_15  and  C_16
REMARK    9  A    between atoms: C_16  and  C_17
REMARK   10  A    between atoms: C_17  and  C_18
REMARK   11  A    between atoms: C_27  and  C_28
REMARK   12  A    between atoms: C_29  and  C_30
REMARK                            x       y       z     vdW  Elec       q    Type
REMARK                         _______ _______ _______ _____ _____    ______ ____
ROOT
ATOM      1  C   UNL     1     -11.146  15.556  67.926  0.00  0.00    +0.070 C 
ENDROOT
BRANCH   1   2
ATOM      2  C   UNL     1     -11.877  14.640  68.963  0.00  0.00    -0.012 A 
ATOM      3  C   UNL     1     -11.367  13.415  69.268  0.00  0.00    -0.003 A 
ATOM      4  C   UNL     1     -12.052  12.650  70.205  0.00  0.00    -0.000 A 
ATOM      5  C   UNL     1     -12.509  13.353  71.314  0.00  0.00    -0.000 A 
ATOM      6  C   UNL     1     -12.775  14.699  71.178  0.00  0.00    -0.000 A 
ATOM      7  C   UNL     1     -12.490  15.340  69.995  0.00  0.00    -0.003 A 
BRANCH   4   8
ATOM      8  C   UNL     1     -12.019  11.195  70.200  0.00  0.00    +0.002 C 
ATOM      9  C   UNL     1     -13.025  10.424  70.540  0.00  0.00    +0.019 C 
BRANCH   9  10
ATOM     10  C   UNL     1     -12.924   9.344  71.531  0.00  0.00    +0.081 A 
ATOM     11  N   UNL     1     -11.683   9.121  72.023  0.00  0.00    -0.245 NA
ATOM     12  C   UNL     1     -11.237   7.881  72.330  0.00  0.00    +0.082 A 
ATOM     13  C   UNL     1     -12.001   6.774  72.072  0.00  0.00    +0.018 A 
ATOM     14  C   UNL     1     -11.512   5.536  72.454  0.00  0.00    +0.002 A 
ATOM     15  C   UNL     1     -10.382   5.466  73.231  0.00  0.00    +0.011 A 
ATOM     16  C   UNL     1      -9.782   6.606  73.744  0.00  0.00    +0.059 A 
ATOM     17 CL   UNL     1      -8.795   6.566  75.197  0.00  0.00    -0.082 Cl
ATOM     18  C   UNL     1     -13.322   6.953  71.712  0.00  0.00    +0.003 A 
ATOM     19  C   UNL     1     -10.095   7.800  73.108  0.00  0.00    +0.030 A 
ATOM     20  C   UNL     1     -13.762   8.244  71.456  0.00  0.00    +0.019 A 
ENDBRANCH   9  10
ENDBRANCH   4   8
ENDBRANCH   1   2
BRANCH   1  21
ATOM     21  S   UNL     1      -9.732  14.317  67.556  0.00  0.00    -0.137 S 
BRANCH  21  22
ATOM     22  C   UNL     1      -9.984  13.651  65.910  0.00  0.00    +0.058 C 
BRANCH  22  23
ATOM     23  C   UNL     1     -10.512  12.248  65.893  0.00  0.00    +0.021 C 
ATOM     24  C   UNL     1      -9.719  11.357  64.897  0.00  0.00    +0.001 C 
ATOM     25  C   UNL     1      -9.728  11.091  66.351  0.00  0.00    +0.001 C 
BRANCH  23  26
ATOM     26  C   UNL     1     -12.000  12.156  65.636  0.00  0.00    +0.115 C 
BRANCH  26  27
ATOM     27  C   UNL     1     -12.376  13.321  64.778  0.00  0.00    +0.365 C 
ATOM     28  O   UNL     1     -13.234  14.269  65.324  0.00  0.00    -0.246 OA
ATOM     29  O   UNL     1     -12.377  13.242  63.513  0.00  0.00    -0.246 OA
ENDBRANCH  26  27
ENDBRANCH  23  26
ENDBRANCH  22  23
ENDBRANCH  21  22
ENDBRANCH   1  21
BRANCH   1  30
ATOM     30  C   UNL     1     -10.312  16.371  69.018  0.00  0.00    +0.020 C 
BRANCH  30  31
ATOM     31  C   UNL     1      -8.935  16.619  68.452  0.00  0.00    +0.027 C 
BRANCH  31  33
ATOM     32  C   UNL     1      -8.421  18.346  66.811  0.00  0.00    +0.001 A 
ATOM     33  C   UNL     1      -8.874  18.071  68.096  0.00  0.00    -0.024 A 
ATOM     34  C   UNL     1      -9.786  18.918  68.708  0.00  0.00    -0.005 A 
ATOM     35  C   UNL     1     -10.254  20.031  68.019  0.00  0.00    -0.000 A 
ATOM     36  C   UNL     1      -9.838  20.290  66.722  0.00  0.00    -0.000 A 
ATOM     37  C   UNL     1      -8.774  19.551  66.220  0.00  0.00    -0.002 A 
BRANCH  32  39
ATOM     38  C   UNL     1      -7.187  16.758  66.430  0.00  0.00    +0.038 C 
ATOM     39  C   UNL     1      -7.137  17.691  66.407  0.00  0.00    +0.145 C 
ATOM     40  O   UNL     1      -6.794  18.146  65.124  0.00  0.00    -0.221 OA
ATOM     41  C   UNL     1      -6.075  18.260  67.343  0.00  0.00    +0.038 C 
ENDBRANCH  32  39
ENDBRANCH  31  33
ENDBRANCH  30  31
ENDBRANCH   1  30
TORSDOF 12
ENDMDL
MODEL 6
REMARK VINA RESULT:      -7.5      4.421      9.690
REMARK  Name = 
REMARK  12 active torsions:
REMARK  status: ('A' for Active; 'I' for Inactive)
REMARK    1  A    between atoms: C_2  and  C_5
REMARK    2  A    between atoms: C_10  and  C_11
REMARK    3  A    between atoms: C_11  and  C_12
REMARK    4  A    between atoms: C_12  and  C_13
REMARK    5  A    between atoms: C_13  and  S_14
REMARK    6  A    between atoms: C_13  and  C_23
REMARK    7  A    between atoms: S_14  and  C_15
REMARK    8  A    between atoms: C_15  and  C_16
REMARK    9  A    between atoms: C_16  and  C_17
REMARK   10  A    between atoms: C_17  and  C_18
REMARK   11  A    between atoms: C_27  and  C_28
REMARK   12  A    between atoms: C_29  and  C_30
REMARK                            x       y       z     vdW  Elec       q    Type
REMARK                         _______ _______ _______ _____ _____    ______ ____
ROOT
ATOM      1  C   UNL     1     -12.030  10.682  69.423  0.00  0.00    +0.070 C 
ENDROOT
BRANCH   1   2
ATOM      2  C   UNL     1     -12.086  11.990  70.282  0.00  0.00    -0.012 A 
ATOM      3  C   UNL     1     -12.065  13.207  69.671  0.00  0.00    -0.003 A 
ATOM      4  C   UNL     1     -12.129  14.333  70.483  0.00  0.00    -0.000 A 
ATOM      5  C   UNL     1     -13.043  14.251  71.527  0.00  0.00    -0.000 A 
ATOM      6  C   UNL     1     -13.364  13.007  72.026  0.00  0.00    -0.000 A 
ATOM      7  C   UNL     1     -12.863  11.875  71.428  0.00  0.00    -0.003 A 
BRANCH   4   8
ATOM      8  C   UNL     1     -11.540  15.608  70.099  0.00  0.00    +0.002 C 
ATOM      9  C   UNL     1     -11.511  16.079  68.875  0.00  0.00    +0.019 C 
BRANCH   9  10
ATOM     10  C   UNL     1     -10.286  16.544  68.210  0.00  0.00    +0.081 A 
ATOM     11  N   UNL     1      -9.620  17.535  68.849  0.00  0.00    -0.245 NA
ATOM     12  C   UNL     1      -8.978  18.523  68.182  0.00  0.00    +0.082 A 
ATOM     13  C   UNL     1      -9.048  18.612  66.817  0.00  0.00    +0.018 A 
ATOM     14  C   UNL     1      -8.330  19.615  66.188  0.00  0.00    +0.002 A 
ATOM     15  C   UNL     1      -7.438  20.365  66.914  0.00  0.00    +0.011 A 
ATOM     16  C   UNL     1      -7.148  20.068  68.236  0.00  0.00    +0.059 A 
ATOM     17 CL   UNL     1      -5.626  20.531  68.984  0.00  0.00    -0.082 Cl
ATOM     18  C   UNL     1      -9.586  17.553  66.113  0.00  0.00    +0.003 A 
ATOM     19  C   UNL     1      -8.081  19.288  68.907  0.00  0.00    +0.030 A 
ATOM     20  C   UNL     1     -10.190  16.530  66.829  0.00  0.00    +0.019 A 
ENDBRANCH   9  10
ENDBRANCH   4   8
ENDBRANCH   1   2
BRANCH   1  21
ATOM     21  S   UNL     1     -10.842   9.746  70.598  0.00  0.00    -0.137 S 
BRANCH  21  22
ATOM     22  C   UNL     1     -11.202   7.993  70.483  0.00  0.00    +0.058 C 
BRANCH  22  23
ATOM     23  C   UNL     1     -11.802   7.410  71.727  0.00  0.00    +0.021 C 
ATOM     24  C   UNL     1     -10.956   6.219  72.259  0.00  0.00    +0.001 C 
ATOM     25  C   UNL     1     -11.138   7.462  73.038  0.00  0.00    +0.001 C 
BRANCH  23  26
ATOM     26  C   UNL     1     -13.257   7.019  71.581  0.00  0.00    +0.115 C 
BRANCH  26  27
ATOM     27  C   UNL     1     -14.068   8.268  71.710  0.00  0.00    +0.365 C 
ATOM     28  O   UNL     1     -14.601   8.560  72.961  0.00  0.00    -0.246 OA
ATOM     29  O   UNL     1     -14.682   8.767  70.720  0.00  0.00    -0.246 OA
ENDBRANCH  26  27
ENDBRANCH  23  26
ENDBRANCH  22  23
ENDBRANCH  21  22
ENDBRANCH   1  21
BRANCH   1  30
ATOM     30  C   UNL     1     -10.866  11.196  68.456  0.00  0.00    +0.020 C 
BRANCH  30  31
ATOM     31  C   UNL     1     -10.975  10.430  67.160  0.00  0.00    +0.027 C 
BRANCH  31  33
ATOM     32  C   UNL     1     -10.654  10.959  64.803  0.00  0.00    +0.001 A 
ATOM     33  C   UNL     1     -10.982  11.447  66.062  0.00  0.00    -0.024 A 
ATOM     34  C   UNL     1     -11.854  12.517  66.188  0.00  0.00    -0.005 A 
ATOM     35  C   UNL     1     -12.409  13.084  65.047  0.00  0.00    -0.000 A 
ATOM     36  C   UNL     1     -12.119  12.578  63.789  0.00  0.00    -0.000 A 
ATOM     37  C   UNL     1     -11.088  11.653  63.682  0.00  0.00    -0.002 A 
BRANCH  32  39
ATOM     38  C   UNL     1      -8.658  10.596  65.074  0.00  0.00    +0.038 C 
ATOM     39  C   UNL     1      -9.396  10.152  64.712  0.00  0.00    +0.145 C 
ATOM     40  O   UNL     1      -9.611   8.924  65.357  0.00  0.00    -0.221 OA
ATOM     41  C   UNL     1      -9.230   9.818  63.233  0.00  0.00    +0.038 C 
ENDBRANCH  32  39
ENDBRANCH  31  33
ENDBRANCH  30  31
ENDBRANCH   1  30
TORSDOF 12
ENDMDL
MODEL 7
REMARK VINA RESULT:      -7.5      3.961      7.389
REMARK  Name = 
REMARK  12 active torsions:
REMARK  status: ('A' for Active; 'I' for Inactive)
REMARK    1  A    between atoms: C_2  and  C_5
REMARK    2  A    between atoms: C_10  and  C_11
REMARK    3  A    between atoms: C_11  and  C_12
REMARK    4  A    between atoms: C_12  and  C_13
REMARK    5  A    between atoms: C_13  and  S_14
REMARK    6  A    between atoms: C_13  and  C_23
REMARK    7  A    between atoms: S_14  and  C_15
REMARK    8  A    between atoms: C_15  and  C_16
REMARK    9  A    between atoms: C_16  and  C_17
REMARK   10  A    between atoms: C_17  and  C_18
REMARK   11  A    between atoms: C_27  and  C_28
REMARK   12  A    between atoms: C_29  and  C_30
REMARK                            x       y       z     vdW  Elec       q    Type
REMARK                         _______ _______ _______ _____ _____    ______ ____
ROOT
ATOM      1  C   UNL     1     -11.032  10.246  68.503  0.00  0.00    +0.070 C 
ENDROOT
BRANCH   1   2
ATOM      2  C   UNL     1      -9.479  10.380  68.648  0.00  0.00    -0.012 A 
ATOM      3  C   UNL     1      -8.901  11.613  68.667  0.00  0.00    -0.003 A 
ATOM      4  C   UNL     1      -7.520  11.671  68.810  0.00  0.00    -0.000 A 
ATOM      5  C   UNL     1      -6.990  10.795  69.750  0.00  0.00    -0.000 A 
ATOM      6  C   UNL     1      -7.675   9.631  70.025  0.00  0.00    -0.000 A 
ATOM      7  C   UNL     1      -8.905   9.404  69.452  0.00  0.00    -0.003 A 
BRANCH   4   8
ATOM      8  C   UNL     1      -6.725  12.765  68.271  0.00  0.00    +0.002 C 
ATOM      9  C   UNL     1      -6.822  14.017  68.652  0.00  0.00    +0.019 C 
BRANCH   9  10
ATOM     10  C   UNL     1      -7.019  15.138  67.722  0.00  0.00    +0.081 A 
ATOM     11  N   UNL     1      -6.729  16.363  68.219  0.00  0.00    -0.245 NA
ATOM     12  C   UNL     1      -7.436  17.467  67.884  0.00  0.00    +0.082 A 
ATOM     13  C   UNL     1      -8.543  17.378  67.082  0.00  0.00    +0.018 A 
ATOM     14  C   UNL     1      -9.196  18.548  66.733  0.00  0.00    +0.002 A 
ATOM     15  C   UNL     1      -8.623  19.758  67.038  0.00  0.00    +0.011 A 
ATOM     16  C   UNL     1      -7.352  19.843  67.583  0.00  0.00    +0.059 A 
ATOM     17 CL   UNL     1      -6.349  21.274  67.393  0.00  0.00    -0.082 Cl
ATOM     18  C   UNL     1      -8.794  16.185  66.433  0.00  0.00    +0.003 A 
ATOM     19  C   UNL     1      -6.870  18.692  68.192  0.00  0.00    +0.030 A 
ATOM     20  C   UNL     1      -8.016  15.085  66.762  0.00  0.00    +0.019 A 
ENDBRANCH   9  10
ENDBRANCH   4   8
ENDBRANCH   1   2
BRANCH   1  21
ATOM     21  S   UNL     1     -11.223  11.692  67.263  0.00  0.00    -0.137 S 
BRANCH  21  22
ATOM     22  C   UNL     1     -10.795  11.093  65.628  0.00  0.00    +0.058 C 
BRANCH  22  23
ATOM     23  C   UNL     1     -11.051  12.079  64.529  0.00  0.00    +0.021 C 
ATOM     24  C   UNL     1     -10.164  11.786  63.287  0.00  0.00    +0.001 C 
ATOM     25  C   UNL     1     -11.639  11.703  63.235  0.00  0.00    +0.001 C 
BRANCH  23  26
ATOM     26  C   UNL     1     -10.920  13.524  64.958  0.00  0.00    +0.115 C 
BRANCH  26  27
ATOM     27  C   UNL     1     -12.211  14.204  64.632  0.00  0.00    +0.365 C 
ATOM     28  O   UNL     1     -12.143  15.447  64.011  0.00  0.00    -0.246 OA
ATOM     29  O   UNL     1     -13.267  13.977  65.294  0.00  0.00    -0.246 OA
ENDBRANCH  26  27
ENDBRANCH  23  26
ENDBRANCH  22  23
ENDBRANCH  21  22
ENDBRANCH   1  21
BRANCH   1  30
ATOM     30  C   UNL     1     -11.372  11.137  69.785  0.00  0.00    +0.020 C 
BRANCH  30  31
ATOM     31  C   UNL     1     -12.083  12.379  69.304  0.00  0.00    +0.027 C 
BRANCH  31  33
ATOM     32  C   UNL     1     -12.306  14.626  70.221  0.00  0.00    +0.001 A 
ATOM     33  C   UNL     1     -12.250  13.265  70.498  0.00  0.00    -0.024 A 
ATOM     34  C   UNL     1     -12.936  12.748  71.586  0.00  0.00    -0.005 A 
ATOM     35  C   UNL     1     -13.692  13.599  72.385  0.00  0.00    -0.000 A 
ATOM     36  C   UNL     1     -13.786  14.951  72.091  0.00  0.00    -0.000 A 
ATOM     37  C   UNL     1     -12.926  15.469  71.131  0.00  0.00    -0.002 A 
BRANCH  32  39
ATOM     38  C   UNL     1     -10.420  14.678  69.427  0.00  0.00    +0.038 C 
ATOM     39  C   UNL     1     -11.211  15.172  69.358  0.00  0.00    +0.145 C 
ATOM     40  O   UNL     1     -11.669  15.208  68.032  0.00  0.00    -0.221 OA
ATOM     41  C   UNL     1     -11.048  16.629  69.777  0.00  0.00    +0.038 C 
ENDBRANCH  32  39
ENDBRANCH  31  33
ENDBRANCH  30  31
ENDBRANCH   1  30
TORSDOF 12
ENDMDL
MODEL 8
REMARK VINA RESULT:      -7.3      2.759      6.354
REMARK  Name = 
REMARK  12 active torsions:
REMARK  status: ('A' for Active; 'I' for Inactive)
REMARK    1  A    between atoms: C_2  and  C_5
REMARK    2  A    between atoms: C_10  and  C_11
REMARK    3  A    between atoms: C_11  and  C_12
REMARK    4  A    between atoms: C_12  and  C_13
REMARK    5  A    between atoms: C_13  and  S_14
REMARK    6  A    between atoms: C_13  and  C_23
REMARK    7  A    between atoms: S_14  and  C_15
REMARK    8  A    between atoms: C_15  and  C_16
REMARK    9  A    between atoms: C_16  and  C_17
REMARK   10  A    between atoms: C_17  and  C_18
REMARK   11  A    between atoms: C_27  and  C_28
REMARK   12  A    between atoms: C_29  and  C_30
REMARK                            x       y       z     vdW  Elec       q    Type
REMARK                         _______ _______ _______ _____ _____    ______ ____
ROOT
ATOM      1  C   UNL     1      -7.207  15.498  67.422  0.00  0.00    +0.070 C 
ENDROOT
BRANCH   1   2
ATOM      2  C   UNL     1      -8.650  15.100  66.963  0.00  0.00    -0.012 A 
ATOM      3  C   UNL     1      -9.620  14.868  67.891  0.00  0.00    -0.003 A 
ATOM      4  C   UNL     1     -10.885  14.529  67.424  0.00  0.00    -0.000 A 
ATOM      5  C   UNL     1     -11.325  15.271  66.335  0.00  0.00    -0.000 A 
ATOM      6  C   UNL     1     -10.387  15.813  65.484  0.00  0.00    -0.000 A 
ATOM      7  C   UNL     1      -9.047  15.704  65.776  0.00  0.00    -0.003 A 
BRANCH   4   8
ATOM      8  C   UNL     1     -11.806  13.705  68.194  0.00  0.00    +0.002 C 
ATOM      9  C   UNL     1     -12.162  13.942  69.434  0.00  0.00    +0.019 C 
BRANCH   9  10
ATOM     10  C   UNL     1     -12.077  12.945  70.510  0.00  0.00    +0.081 A 
ATOM     11  N   UNL     1     -11.586  11.737  70.144  0.00  0.00    -0.245 NA
ATOM     12  C   UNL     1     -12.041  10.579  70.677  0.00  0.00    +0.082 A 
ATOM     13  C   UNL     1     -13.090  10.573  71.558  0.00  0.00    +0.018 A 
ATOM     14  C   UNL     1     -13.479   9.363  72.107  0.00  0.00    +0.002 A 
ATOM     15  C   UNL     1     -12.702   8.249  71.905  0.00  0.00    +0.011 A 
ATOM     16  C   UNL     1     -11.476   8.325  71.263  0.00  0.00    +0.059 A 
ATOM     17 CL   UNL     1     -10.204   7.144  71.539  0.00  0.00    -0.082 Cl
ATOM     18  C   UNL     1     -13.526  11.778  72.073  0.00  0.00    +0.003 A 
ATOM     19  C   UNL     1     -11.269   9.448  70.474  0.00  0.00    +0.030 A 
ATOM     20  C   UNL     1     -13.000  12.946  71.542  0.00  0.00    +0.019 A 
ENDBRANCH   9  10
ENDBRANCH   4   8
ENDBRANCH   1   2
BRANCH   1  21
ATOM     21  S   UNL     1      -6.867  13.874  68.378  0.00  0.00    -0.137 S 
BRANCH  21  22
ATOM     22  C   UNL     1      -6.755  12.535  67.191  0.00  0.00    +0.058 C 
BRANCH  22  23
ATOM     23  C   UNL     1      -7.674  11.386  67.477  0.00  0.00    +0.021 C 
ATOM     24  C   UNL     1      -6.972  10.298  68.336  0.00  0.00    +0.001 C 
ATOM     25  C   UNL     1      -8.144  11.052  68.829  0.00  0.00    +0.001 C 
BRANCH  23  26
ATOM     26  C   UNL     1      -8.300  10.779  66.240  0.00  0.00    +0.115 C 
BRANCH  26  27
ATOM     27  C   UNL     1      -9.646  11.406  66.068  0.00  0.00    +0.365 C 
ATOM     28  O   UNL     1     -10.744  10.717  66.572  0.00  0.00    -0.246 OA
ATOM     29  O   UNL     1      -9.889  12.209  65.119  0.00  0.00    -0.246 OA
ENDBRANCH  26  27
ENDBRANCH  23  26
ENDBRANCH  22  23
ENDBRANCH  21  22
ENDBRANCH   1  21
BRANCH   1  30
ATOM     30  C   UNL     1      -7.687  16.304  68.716  0.00  0.00    +0.020 C 
BRANCH  30  31
ATOM     31  C   UNL     1      -7.050  17.672  68.667  0.00  0.00    +0.027 C 
BRANCH  31  33
ATOM     32  C   UNL     1      -7.915  19.053  66.857  0.00  0.00    +0.001 A 
ATOM     33  C   UNL     1      -8.097  18.613  68.163  0.00  0.00    -0.024 A 
ATOM     34  C   UNL     1      -9.376  18.485  68.682  0.00  0.00    -0.005 A 
ATOM     35  C   UNL     1     -10.472  18.784  67.881  0.00  0.00    -0.000 A 
ATOM     36  C   UNL     1     -10.301  19.185  66.565  0.00  0.00    -0.000 A 
ATOM     37  C   UNL     1      -9.017  19.505  66.144  0.00  0.00    -0.002 A 
BRANCH  32  39
ATOM     38  C   UNL     1      -6.583  20.525  66.356  0.00  0.00    +0.038 C 
ATOM     39  C   UNL     1      -6.564  19.605  66.525  0.00  0.00    +0.145 C 
ATOM     40  O   UNL     1      -5.692  19.305  67.584  0.00  0.00    -0.221 OA
ATOM     41  C   UNL     1      -6.067  18.786  65.339  0.00  0.00    +0.038 C 
ENDBRANCH  32  39
ENDBRANCH  31  33
ENDBRANCH  30  31
ENDBRANCH   1  30
TORSDOF 12
ENDMDL
MODEL 9
REMARK VINA RESULT:      -7.3      4.430      9.343
REMARK  Name = 
REMARK  12 active torsions:
REMARK  status: ('A' for Active; 'I' for Inactive)
REMARK    1  A    between atoms: C_2  and  C_5
REMARK    2  A    between atoms: C_10  and  C_11
REMARK    3  A    between atoms: C_11  and  C_12
REMARK    4  A    between atoms: C_12  and  C_13
REMARK    5  A    between atoms: C_13  and  S_14
REMARK    6  A    between atoms: C_13  and  C_23
REMARK    7  A    between atoms: S_14  and  C_15
REMARK    8  A    between atoms: C_15  and  C_16
REMARK    9  A    between atoms: C_16  and  C_17
REMARK   10  A    between atoms: C_17  and  C_18
REMARK   11  A    between atoms: C_27  and  C_28
REMARK   12  A    between atoms: C_29  and  C_30
REMARK                            x       y       z     vdW  Elec       q    Type
REMARK                         _______ _______ _______ _____ _____    ______ ____
ROOT
ATOM      1  C   UNL     1     -12.337  10.803  69.803  0.00  0.00    +0.070 C 
ENDROOT
BRANCH   1   2
ATOM      2  C   UNL     1     -12.322  12.138  70.619  0.00  0.00    -0.012 A 
ATOM      3  C   UNL     1     -12.210  13.331  69.970  0.00  0.00    -0.003 A 
ATOM      4  C   UNL     1     -12.214  14.485  70.746  0.00  0.00    -0.000 A 
ATOM      5  C   UNL     1     -13.150  14.497  71.773  0.00  0.00    -0.000 A 
ATOM      6  C   UNL     1     -13.560  13.294  72.305  0.00  0.00    -0.000 A 
ATOM      7  C   UNL     1     -13.125  12.112  71.752  0.00  0.00    -0.003 A 
BRANCH   4   8
ATOM      8  C   UNL     1     -11.535  15.705  70.333  0.00  0.00    +0.002 C 
ATOM      9  C   UNL     1     -11.640  16.253  69.146  0.00  0.00    +0.019 C 
BRANCH   9  10
ATOM     10  C   UNL     1     -10.486  16.616  68.312  0.00  0.00    +0.081 A 
ATOM     11  N   UNL     1      -9.616  17.489  68.874  0.00  0.00    -0.245 NA
ATOM     12  C   UNL     1      -8.972  18.435  68.153  0.00  0.00    +0.082 A 
ATOM     13  C   UNL     1      -9.241  18.610  66.821  0.00  0.00    +0.018 A 
ATOM     14  C   UNL     1      -8.514  19.562  66.124  0.00  0.00    +0.002 A 
ATOM     15  C   UNL     1      -7.437  20.164  66.727  0.00  0.00    +0.011 A 
ATOM     16  C   UNL     1      -6.984  19.762  67.974  0.00  0.00    +0.059 A 
ATOM     17 CL   UNL     1      -5.321  20.009  68.485  0.00  0.00    -0.082 Cl
ATOM     18  C   UNL     1     -10.003  17.660  66.172  0.00  0.00    +0.003 A 
ATOM     19  C   UNL     1      -7.888  19.053  68.753  0.00  0.00    +0.030 A 
ATOM     20  C   UNL     1     -10.606  16.671  66.934  0.00  0.00    +0.019 A 
ENDBRANCH   9  10
ENDBRANCH   4   8
ENDBRANCH   1   2
BRANCH   1  21
ATOM     21  S   UNL     1     -12.068   9.663  71.318  0.00  0.00    -0.137 S 
BRANCH  21  22
ATOM     22  C   UNL     1     -10.339   9.189  71.366  0.00  0.00    +0.058 C 
BRANCH  22  23
ATOM     23  C   UNL     1     -10.095   7.820  71.925  0.00  0.00    +0.021 C 
ATOM     24  C   UNL     1      -9.272   7.883  73.241  0.00  0.00    +0.001 C 
ATOM     25  C   UNL     1     -10.656   7.365  73.206  0.00  0.00    +0.001 C 
BRANCH  23  26
ATOM     26  C   UNL     1      -9.467   6.858  70.939  0.00  0.00    +0.115 C 
BRANCH  26  27
ATOM     27  C   UNL     1     -10.238   6.964  69.663  0.00  0.00    +0.365 C 
ATOM     28  O   UNL     1     -11.329   6.116  69.499  0.00  0.00    -0.246 OA
ATOM     29  O   UNL     1      -9.700   7.379  68.593  0.00  0.00    -0.246 OA
ENDBRANCH  26  27
ENDBRANCH  23  26
ENDBRANCH  22  23
ENDBRANCH  21  22
ENDBRANCH   1  21
BRANCH   1  30
ATOM     30  C   UNL     1     -10.789  10.856  69.413  0.00  0.00    +0.020 C 
BRANCH  30  31
ATOM     31  C   UNL     1     -10.690  10.741  67.911  0.00  0.00    +0.027 C 
BRANCH  31  33
ATOM     32  C   UNL     1      -9.762  12.767  66.926  0.00  0.00    +0.001 A 
ATOM     33  C   UNL     1      -9.488  11.532  67.500  0.00  0.00    -0.024 A 
ATOM     34  C   UNL     1      -8.321  11.345  68.225  0.00  0.00    -0.005 A 
ATOM     35  C   UNL     1      -7.439  12.408  68.387  0.00  0.00    -0.000 A 
ATOM     36  C   UNL     1      -7.724  13.655  67.852  0.00  0.00    -0.000 A 
ATOM     37  C   UNL     1      -8.785  13.753  66.960  0.00  0.00    -0.002 A 
BRANCH  32  39
ATOM     38  C   UNL     1     -10.474  13.292  65.080  0.00  0.00    +0.038 C 
ATOM     39  C   UNL     1     -10.754  12.772  65.805  0.00  0.00    +0.145 C 
ATOM     40  O   UNL     1     -10.985  11.444  65.414  0.00  0.00    -0.221 OA
ATOM     41  C   UNL     1     -12.064  13.254  66.420  0.00  0.00    +0.038 C 
ENDBRANCH  32  39
ENDBRANCH  31  33
ENDBRANCH  30  31
ENDBRANCH   1  30
TORSDOF 12
ENDMDL
