MODEL 1
REMARK VINA RESULT:      -8.4      0.000      0.000
REMARK  Name = 
REMARK  7 active torsions:
REMARK  status: ('A' for Active; 'I' for Inactive)
REMARK    1  A    between atoms: N_2  and  C_4
REMARK    2  A    between atoms: C_6  and  N_7
REMARK    3  A    between atoms: C_8  and  C_10
REMARK    4  A    between atoms: C_10  and  N_11
REMARK    5  A    between atoms: N_11  and  C_12
REMARK    6  A    between atoms: C_24  and  N_25
REMARK    7  A    between atoms: C_30  and  C_31
REMARK                            x       y       z     vdW  Elec       q    Type
REMARK                         _______ _______ _______ _____ _____    ______ ____
ROOT
ATOM      1  C   UNL     1     -13.268  13.461  71.938  0.00  0.00    +0.045 A 
ATOM      2  C   UNL     1     -12.226  13.615  71.031  0.00  0.00    -0.002 A 
ATOM      3  C   UNL     1     -11.421  14.846  70.913  0.00  0.00    +0.032 C 
ATOM      4  C   UNL     1     -11.849  15.483  69.471  0.00  0.00    +0.033 C 
ATOM      5  C   UNL     1     -11.252  14.302  68.574  0.00  0.00    +0.054 C 
ATOM      6  C   UNL     1     -11.216  12.957  68.958  0.00  0.00    +0.197 C 
ATOM      7  O   UNL     1     -11.192  12.065  68.056  0.00  0.00    -0.287 OA
ATOM      8  C   UNL     1     -11.347  14.770  67.325  0.00  0.00    +0.207 C 
ATOM      9  O   UNL     1     -11.424  13.806  66.311  0.00  0.00    -0.289 OA
ATOM     10  C   UNL     1     -10.619  16.017  66.912  0.00  0.00    +0.237 C 
ATOM     11  C   UNL     1     -10.969  17.131  68.003  0.00  0.00    +0.065 C 
ATOM     12  C   UNL     1      -9.597  18.153  67.887  0.00  0.00    +0.124 C 
ATOM     13  C   UNL     1      -8.457  17.115  68.299  0.00  0.00    +0.195 C 
ATOM     14  C   UNL     1      -8.222  16.065  67.618  0.00  0.00    +0.130 C 
ATOM     15  O   UNL     1      -7.375  17.825  68.842  0.00  0.00    -0.290 OA
ATOM     16  O   UNL     1     -11.277  16.381  65.720  0.00  0.00    -0.210 OA
ATOM     17  C   UNL     1      -9.292  15.645  66.756  0.00  0.00    +0.215 C 
ATOM     18  O   UNL     1      -9.080  14.616  66.045  0.00  0.00    -0.288 OA
ATOM     19  C   UNL     1     -10.443  16.307  69.306  0.00  0.00    +0.010 C 
ATOM     20  C   UNL     1     -11.751  12.555  70.265  0.00  0.00    +0.076 A 
ATOM     21  C   UNL     1     -12.111  11.276  70.584  0.00  0.00    +0.214 A 
ATOM     22  O   UNL     1     -11.777  10.248  69.735  0.00  0.00    -0.285 OA
ATOM     23  C   UNL     1     -12.970  11.112  71.652  0.00  0.00    +0.114 A 
ATOM     24  C   UNL     1     -13.805  12.177  71.970  0.00  0.00    +0.034 A 
ENDROOT
BRANCH  14  25
ATOM     25  C   UNL     1      -7.241  15.109  68.154  0.00  0.00    +0.290 C 
ATOM     26  O   UNL     1      -7.575  14.207  68.961  0.00  0.00    -0.266 OA
ATOM     27  N   UNL     1      -6.005  14.955  67.448  0.00  0.00    -0.084 NA
ENDBRANCH  14  25
BRANCH  12  28
ATOM     28  N   UNL     1      -9.381  18.002  66.336  0.00  0.00    -0.265 NA
ATOM     29  C   UNL     1     -10.267  19.094  65.906  0.00  0.00    +0.090 C 
ATOM     30  C   UNL     1      -8.053  18.610  66.194  0.00  0.00    +0.090 C 
ENDBRANCH  12  28
BRANCH   1  32
ATOM     31  C   UNL     1     -14.732  14.845  71.566  0.00  0.00    +0.112 C 
ATOM     32  N   UNL     1     -14.117  14.620  72.042  0.00  0.00    -0.304 N 
ATOM     33  C   UNL     1     -13.560  15.598  72.988  0.00  0.00    +0.112 C 
ENDBRANCH   1  32
BRANCH  23  34
ATOM     34  N   UNL     1     -13.103   9.820  72.233  0.00  0.00    -0.175 NA
ATOM     35  C   UNL     1     -13.766   8.787  71.533  0.00  0.00    +0.263 C 
ATOM     36  O   UNL     1     -14.841   9.101  70.960  0.00  0.00    -0.271 OA
BRANCH  35  37
ATOM     37  C   UNL     1     -13.157   7.467  71.200  0.00  0.00    +0.176 C 
BRANCH  37  38
ATOM     38  N   UNL     1     -12.014   7.186  72.034  0.00  0.00    -0.211 NA
BRANCH  38  39
ATOM     39  C   UNL     1     -10.935   6.651  71.245  0.00  0.00    +0.060 C 
ATOM     40  C   UNL     1     -10.396   5.408  71.924  0.00  0.00    +0.017 C 
ATOM     41  C   UNL     1     -11.365   6.282  69.851  0.00  0.00    +0.017 C 
ATOM     42  C   UNL     1      -9.825   7.666  71.155  0.00  0.00    +0.017 C 
ENDBRANCH  38  39
ENDBRANCH  37  38
ENDBRANCH  35  37
ENDBRANCH  23  34
TORSDOF 7
ENDMDL
MODEL 2
REMARK VINA RESULT:      -7.4      3.028      4.764
REMARK  Name = 
REMARK  7 active torsions:
REMARK  status: ('A' for Active; 'I' for Inactive)
REMARK    1  A    between atoms: N_2  and  C_4
REMARK    2  A    between atoms: C_6  and  N_7
REMARK    3  A    between atoms: C_8  and  C_10
REMARK    4  A    between atoms: C_10  and  N_11
REMARK    5  A    between atoms: N_11  and  C_12
REMARK    6  A    between atoms: C_24  and  N_25
REMARK    7  A    between atoms: C_30  and  C_31
REMARK                            x       y       z     vdW  Elec       q    Type
REMARK                         _______ _______ _______ _____ _____    ______ ____
ROOT
ATOM      1  C   UNL     1     -12.016   8.441  71.739  0.00  0.00    +0.045 A 
ATOM      2  C   UNL     1     -11.171   9.095  70.849  0.00  0.00    -0.002 A 
ATOM      3  C   UNL     1     -11.198  10.551  70.618  0.00  0.00    +0.032 C 
ATOM      4  C   UNL     1     -11.787  10.719  69.104  0.00  0.00    +0.033 C 
ATOM      5  C   UNL     1     -10.553  10.029  68.358  0.00  0.00    +0.054 C 
ATOM      6  C   UNL     1      -9.796   8.979  68.889  0.00  0.00    +0.197 C 
ATOM      7  O   UNL     1      -9.194   8.196  68.091  0.00  0.00    -0.287 OA
ATOM      8  C   UNL     1     -10.791  10.264  67.064  0.00  0.00    +0.207 C 
ATOM      9  O   UNL     1     -10.222   9.357  66.159  0.00  0.00    -0.289 OA
ATOM     10  C   UNL     1     -10.864  11.668  66.536  0.00  0.00    +0.237 C 
ATOM     11  C   UNL     1     -11.874  12.460  67.489  0.00  0.00    +0.065 C 
ATOM     12  C   UNL     1     -11.317  14.070  67.299  0.00  0.00    +0.124 C 
ATOM     13  C   UNL     1      -9.829  13.904  67.853  0.00  0.00    +0.195 C 
ATOM     14  C   UNL     1      -8.985  13.130  67.297  0.00  0.00    +0.130 C 
ATOM     15  O   UNL     1      -9.390  15.143  68.343  0.00  0.00    -0.290 OA
ATOM     16  O   UNL     1     -11.509  11.501  65.294  0.00  0.00    -0.210 OA
ATOM     17  C   UNL     1      -9.552  12.111  66.458  0.00  0.00    +0.215 C 
ATOM     18  O   UNL     1      -8.736  11.339  65.870  0.00  0.00    -0.288 OA
ATOM     19  C   UNL     1     -11.086  12.185  68.888  0.00  0.00    +0.010 C 
ATOM     20  C   UNL     1     -10.118   8.442  70.216  0.00  0.00    +0.076 A 
ATOM     21  C   UNL     1      -9.716   7.215  70.664  0.00  0.00    +0.214 A 
ATOM     22  O   UNL     1      -8.788   6.502  69.941  0.00  0.00    -0.285 OA
ATOM     23  C   UNL     1     -10.418   6.670  71.720  0.00  0.00    +0.114 A 
ATOM     24  C   UNL     1     -11.733   7.086  71.896  0.00  0.00    +0.034 A 
ENDROOT
BRANCH  14  25
ATOM     25  C   UNL     1      -7.685  12.949  67.961  0.00  0.00    +0.290 C 
ATOM     26  O   UNL     1      -7.503  12.049  68.818  0.00  0.00    -0.266 OA
ATOM     27  N   UNL     1      -6.532  13.527  67.338  0.00  0.00    -0.084 NA
ENDBRANCH  14  25
BRANCH  12  28
ATOM     28  N   UNL     1     -10.923  13.955  65.780  0.00  0.00    -0.265 NA
ATOM     29  C   UNL     1     -12.237  14.286  65.209  0.00  0.00    +0.090 C 
ATOM     30  C   UNL     1     -10.186  15.212  65.602  0.00  0.00    +0.090 C 
ENDBRANCH  12  28
BRANCH   1  32
ATOM     31  C   UNL     1     -13.688   9.600  71.982  0.00  0.00    +0.112 C 
ATOM     32  N   UNL     1     -13.376   8.910  71.693  0.00  0.00    -0.304 N 
ATOM     33  C   UNL     1     -14.294   7.831  71.301  0.00  0.00    +0.112 C 
ENDBRANCH   1  32
BRANCH  23  34
ATOM     34  N   UNL     1      -9.845   5.581  72.435  0.00  0.00    -0.175 NA
ATOM     35  C   UNL     1     -10.033   5.466  73.831  0.00  0.00    +0.263 C 
ATOM     36  O   UNL     1      -9.901   6.522  74.501  0.00  0.00    -0.271 OA
BRANCH  35  37
ATOM     37  C   UNL     1     -10.631   4.280  74.507  0.00  0.00    +0.176 C 
BRANCH  37  38
ATOM     38  N   UNL     1     -11.430   3.497  73.595  0.00  0.00    -0.211 NA
BRANCH  38  39
ATOM     39  C   UNL     1     -10.977   2.130  73.575  0.00  0.00    +0.060 C 
ATOM     40  C   UNL     1     -10.154   1.901  72.323  0.00  0.00    +0.017 C 
ATOM     41  C   UNL     1     -10.129   1.785  74.770  0.00  0.00    +0.017 C 
ATOM     42  C   UNL     1     -12.166   1.206  73.544  0.00  0.00    +0.017 C 
ENDBRANCH  38  39
ENDBRANCH  37  38
ENDBRANCH  35  37
ENDBRANCH  23  34
TORSDOF 7
ENDMDL
MODEL 3
REMARK VINA RESULT:      -7.3      3.401      9.900
REMARK  Name = 
REMARK  7 active torsions:
REMARK  status: ('A' for Active; 'I' for Inactive)
REMARK    1  A    between atoms: N_2  and  C_4
REMARK    2  A    between atoms: C_6  and  N_7
REMARK    3  A    between atoms: C_8  and  C_10
REMARK    4  A    between atoms: C_10  and  N_11
REMARK    5  A    between atoms: N_11  and  C_12
REMARK    6  A    between atoms: C_24  and  N_25
REMARK    7  A    between atoms: C_30  and  C_31
REMARK                            x       y       z     vdW  Elec       q    Type
REMARK                         _______ _______ _______ _____ _____    ______ ____
ROOT
ATOM      1  C   UNL     1     -12.055  10.736  70.302  0.00  0.00    +0.045 A 
ATOM      2  C   UNL     1     -11.134   9.712  70.490  0.00  0.00    -0.002 A 
ATOM      3  C   UNL     1     -11.488   8.381  71.018  0.00  0.00    +0.032 C 
ATOM      4  C   UNL     1     -10.806   8.329  72.500  0.00  0.00    +0.033 C 
ATOM      5  C   UNL     1      -9.289   8.376  71.997  0.00  0.00    +0.054 C 
ATOM      6  C   UNL     1      -8.855   9.065  70.859  0.00  0.00    +0.197 C 
ATOM      7  O   UNL     1      -7.647   9.452  70.803  0.00  0.00    -0.287 OA
ATOM      8  C   UNL     1      -8.578   8.139  73.104  0.00  0.00    +0.207 C 
ATOM      9  O   UNL     1      -7.269   8.642  73.113  0.00  0.00    -0.289 OA
ATOM     10  C   UNL     1      -8.727   6.847  73.854  0.00  0.00    +0.237 C 
ATOM     11  C   UNL     1     -10.294   6.635  74.087  0.00  0.00    +0.065 C 
ATOM     12  C   UNL     1     -10.383   4.929  74.223  0.00  0.00    +0.124 C 
ATOM     13  C   UNL     1      -9.835   4.518  72.781  0.00  0.00    +0.195 C 
ATOM     14  C   UNL     1      -8.660   4.820  72.395  0.00  0.00    +0.130 C 
ATOM     15  O   UNL     1     -10.357   3.260  72.443  0.00  0.00    -0.290 OA
ATOM     16  O   UNL     1      -8.158   7.148  75.108  0.00  0.00    -0.210 OA
ATOM     17  C   UNL     1      -8.040   5.898  73.113  0.00  0.00    +0.215 C 
ATOM     18  O   UNL     1      -6.859   6.206  72.769  0.00  0.00    -0.288 OA
ATOM     19  C   UNL     1     -10.739   6.692  72.521  0.00  0.00    +0.010 C 
ATOM     20  C   UNL     1      -9.821   9.809  70.041  0.00  0.00    +0.076 A 
ATOM     21  C   UNL     1      -9.478  10.797  69.162  0.00  0.00    +0.214 A 
ATOM     22  O   UNL     1      -8.154  10.993  68.847  0.00  0.00    -0.285 OA
ATOM     23  C   UNL     1     -10.471  11.681  68.789  0.00  0.00    +0.114 A 
ATOM     24  C   UNL     1     -11.529  11.862  69.673  0.00  0.00    +0.034 A 
ENDROOT
BRANCH  14  25
ATOM     25  C   UNL     1      -8.300   4.510  71.003  0.00  0.00    +0.290 C 
ATOM     26  O   UNL     1      -8.531   5.316  70.069  0.00  0.00    -0.266 OA
ATOM     27  N   UNL     1      -7.328   3.482  70.778  0.00  0.00    -0.084 NA
ENDBRANCH  14  25
BRANCH  12  28
ATOM     28  N   UNL     1      -9.010   4.728  74.966  0.00  0.00    -0.265 NA
ATOM     29  C   UNL     1      -9.507   4.866  76.342  0.00  0.00    +0.090 C 
ATOM     30  C   UNL     1      -8.851   3.274  74.840  0.00  0.00    +0.090 C 
ENDBRANCH  12  28
BRANCH   1  32
ATOM     31  C   UNL     1     -13.538  10.328  71.656  0.00  0.00    +0.112 C 
ATOM     32  N   UNL     1     -12.998  10.867  71.382  0.00  0.00    -0.304 N 
ATOM     33  C   UNL     1     -13.121  12.268  71.809  0.00  0.00    +0.112 C 
ENDBRANCH   1  32
BRANCH  23  34
ATOM     34  N   UNL     1     -10.267  12.498  67.643  0.00  0.00    -0.175 NA
ATOM     35  C   UNL     1     -11.345  12.798  66.779  0.00  0.00    +0.263 C 
ATOM     36  O   UNL     1     -12.105  11.841  66.481  0.00  0.00    -0.271 OA
BRANCH  35  37
ATOM     37  C   UNL     1     -11.791  14.179  66.436  0.00  0.00    +0.176 C 
BRANCH  37  38
ATOM     38  N   UNL     1     -11.087  15.171  67.209  0.00  0.00    -0.211 NA
BRANCH  38  39
ATOM     39  C   UNL     1     -10.288  16.006  66.349  0.00  0.00    +0.060 C 
ATOM     40  C   UNL     1     -10.298  17.422  66.888  0.00  0.00    +0.017 C 
ATOM     41  C   UNL     1      -8.859  15.543  66.260  0.00  0.00    +0.017 C 
ATOM     42  C   UNL     1     -10.880  16.016  64.964  0.00  0.00    +0.017 C 
ENDBRANCH  38  39
ENDBRANCH  37  38
ENDBRANCH  35  37
ENDBRANCH  23  34
TORSDOF 7
ENDMDL
MODEL 4
REMARK VINA RESULT:      -7.3      3.974     10.135
REMARK  Name = 
REMARK  7 active torsions:
REMARK  status: ('A' for Active; 'I' for Inactive)
REMARK    1  A    between atoms: N_2  and  C_4
REMARK    2  A    between atoms: C_6  and  N_7
REMARK    3  A    between atoms: C_8  and  C_10
REMARK    4  A    between atoms: C_10  and  N_11
REMARK    5  A    between atoms: N_11  and  C_12
REMARK    6  A    between atoms: C_24  and  N_25
REMARK    7  A    between atoms: C_30  and  C_31
REMARK                            x       y       z     vdW  Elec       q    Type
REMARK                         _______ _______ _______ _____ _____    ______ ____
ROOT
ATOM      1  C   UNL     1      -9.857   9.419  68.241  0.00  0.00    +0.045 A 
ATOM      2  C   UNL     1      -9.714   9.010  69.562  0.00  0.00    -0.002 A 
ATOM      3  C   UNL     1      -8.538   8.276  70.067  0.00  0.00    +0.032 C 
ATOM      4  C   UNL     1      -9.095   6.776  70.390  0.00  0.00    +0.033 C 
ATOM      5  C   UNL     1     -10.075   7.204  71.579  0.00  0.00    +0.054 C 
ATOM      6  C   UNL     1     -10.762   8.421  71.637  0.00  0.00    +0.197 C 
ATOM      7  O   UNL     1     -11.838   8.483  72.307  0.00  0.00    -0.287 OA
ATOM      8  C   UNL     1     -10.474   6.039  72.099  0.00  0.00    +0.207 C 
ATOM      9  O   UNL     1     -11.709   6.052  72.761  0.00  0.00    -0.289 OA
ATOM     10  C   UNL     1      -9.484   5.083  72.699  0.00  0.00    +0.237 C 
ATOM     11  C   UNL     1      -8.320   4.895  71.620  0.00  0.00    +0.065 C 
ATOM     12  C   UNL     1      -6.999   4.468  72.625  0.00  0.00    +0.124 C 
ATOM     13  C   UNL     1      -6.908   5.788  73.519  0.00  0.00    +0.195 C 
ATOM     14  C   UNL     1      -7.866   6.162  74.269  0.00  0.00    +0.130 C 
ATOM     15  O   UNL     1      -5.591   5.927  73.982  0.00  0.00    -0.290 OA
ATOM     16  O   UNL     1     -10.207   3.874  72.746  0.00  0.00    -0.210 OA
ATOM     17  C   UNL     1      -9.151   5.612  73.937  0.00  0.00    +0.215 C 
ATOM     18  O   UNL     1     -10.122   5.946  74.681  0.00  0.00    -0.288 OA
ATOM     19  C   UNL     1      -7.915   6.467  71.486  0.00  0.00    +0.010 C 
ATOM     20  C   UNL     1     -10.604   9.403  70.557  0.00  0.00    +0.076 A 
ATOM     21  C   UNL     1     -11.481  10.423  70.315  0.00  0.00    +0.214 A 
ATOM     22  O   UNL     1     -12.465  10.701  71.235  0.00  0.00    -0.285 OA
ATOM     23  C   UNL     1     -11.453  10.992  69.058  0.00  0.00    +0.114 A 
ATOM     24  C   UNL     1     -10.982  10.208  68.012  0.00  0.00    +0.034 A 
ENDROOT
BRANCH  14  25
ATOM     25  C   UNL     1      -7.732   7.459  74.949  0.00  0.00    +0.290 C 
ATOM     26  O   UNL     1      -7.338   7.540  76.139  0.00  0.00    -0.266 OA
ATOM     27  N   UNL     1      -7.658   8.635  74.135  0.00  0.00    -0.084 NA
ENDBRANCH  14  25
BRANCH  12  28
ATOM     28  N   UNL     1      -7.824   3.635  73.675  0.00  0.00    -0.265 NA
ATOM     29  C   UNL     1      -7.734   2.329  73.005  0.00  0.00    +0.090 C 
ATOM     30  C   UNL     1      -6.828   3.500  74.745  0.00  0.00    +0.090 C 
ENDBRANCH  12  28
BRANCH   1  32
ATOM     31  C   UNL     1      -8.801   8.429  66.791  0.00  0.00    +0.112 C 
ATOM     32  N   UNL     1      -9.444   8.426  67.283  0.00  0.00    -0.304 N 
ATOM     33  C   UNL     1     -10.517   7.452  67.036  0.00  0.00    +0.112 C 
ENDBRANCH   1  32
BRANCH  23  34
ATOM     34  N   UNL     1     -12.084  12.252  68.862  0.00  0.00    -0.175 NA
ATOM     35  C   UNL     1     -11.449  13.258  68.099  0.00  0.00    +0.263 C 
ATOM     36  O   UNL     1     -10.223  13.434  68.317  0.00  0.00    -0.271 OA
BRANCH  35  37
ATOM     37  C   UNL     1     -12.046  13.908  66.897  0.00  0.00    +0.176 C 
BRANCH  37  38
ATOM     38  N   UNL     1     -12.409  12.936  65.894  0.00  0.00    -0.211 NA
BRANCH  38  39
ATOM     39  C   UNL     1     -11.844  13.295  64.619  0.00  0.00    +0.060 C 
ATOM     40  C   UNL     1     -10.335  13.183  64.699  0.00  0.00    +0.017 C 
ATOM     41  C   UNL     1     -12.327  12.408  63.503  0.00  0.00    +0.017 C 
ATOM     42  C   UNL     1     -12.202  14.721  64.292  0.00  0.00    +0.017 C 
ENDBRANCH  38  39
ENDBRANCH  37  38
ENDBRANCH  35  37
ENDBRANCH  23  34
TORSDOF 7
ENDMDL
MODEL 5
REMARK VINA RESULT:      -7.0      2.886      9.157
REMARK  Name = 
REMARK  7 active torsions:
REMARK  status: ('A' for Active; 'I' for Inactive)
REMARK    1  A    between atoms: N_2  and  C_4
REMARK    2  A    between atoms: C_6  and  N_7
REMARK    3  A    between atoms: C_8  and  C_10
REMARK    4  A    between atoms: C_10  and  N_11
REMARK    5  A    between atoms: N_11  and  C_12
REMARK    6  A    between atoms: C_24  and  N_25
REMARK    7  A    between atoms: C_30  and  C_31
REMARK                            x       y       z     vdW  Elec       q    Type
REMARK                         _______ _______ _______ _____ _____    ______ ____
ROOT
ATOM      1  C   UNL     1     -10.884  12.822  66.458  0.00  0.00    +0.045 A 
ATOM      2  C   UNL     1     -10.502  12.035  67.539  0.00  0.00    -0.002 A 
ATOM      3  C   UNL     1      -9.528  10.932  67.442  0.00  0.00    +0.032 C 
ATOM      4  C   UNL     1     -10.413   9.577  67.657  0.00  0.00    +0.033 C 
ATOM      5  C   UNL     1     -10.818   9.872  69.176  0.00  0.00    +0.054 C 
ATOM      6  C   UNL     1     -11.034  11.150  69.702  0.00  0.00    +0.197 C 
ATOM      7  O   UNL     1     -11.792  11.273  70.713  0.00  0.00    -0.287 OA
ATOM      8  C   UNL     1     -11.398   8.736  69.577  0.00  0.00    +0.207 C 
ATOM      9  O   UNL     1     -12.317   8.854  70.629  0.00  0.00    -0.289 OA
ATOM     10  C   UNL     1     -10.634   7.444  69.593  0.00  0.00    +0.237 C 
ATOM     11  C   UNL     1      -9.956   7.298  68.153  0.00  0.00    +0.065 C 
ATOM     12  C   UNL     1      -8.608   6.305  68.518  0.00  0.00    +0.124 C 
ATOM     13  C   UNL     1      -7.847   7.257  69.549  0.00  0.00    +0.195 C 
ATOM     14  C   UNL     1      -8.376   7.620  70.649  0.00  0.00    +0.130 C 
ATOM     15  O   UNL     1      -6.480   6.944  69.526  0.00  0.00    -0.290 OA
ATOM     16  O   UNL     1     -11.658   6.477  69.670  0.00  0.00    -0.210 OA
ATOM     17  C   UNL     1      -9.807   7.507  70.704  0.00  0.00    +0.215 C 
ATOM     18  O   UNL     1     -10.362   7.838  71.795  0.00  0.00    -0.288 OA
ATOM     19  C   UNL     1      -9.130   8.702  68.178  0.00  0.00    +0.010 C 
ATOM     20  C   UNL     1     -10.892  12.330  68.841  0.00  0.00    +0.076 A 
ATOM     21  C   UNL     1     -11.430  13.554  69.125  0.00  0.00    +0.214 A 
ATOM     22  O   UNL     1     -11.963  13.785  70.371  0.00  0.00    -0.285 OA
ATOM     23  C   UNL     1     -11.588  14.432  68.071  0.00  0.00    +0.114 A 
ATOM     24  C   UNL     1     -11.715  13.886  66.799  0.00  0.00    +0.034 A 
ENDROOT
BRANCH  14  25
ATOM     25  C   UNL     1      -7.646   8.602  71.465  0.00  0.00    +0.290 C 
ATOM     26  O   UNL     1      -7.320   9.725  71.007  0.00  0.00    -0.266 OA
ATOM     27  N   UNL     1      -7.670   8.437  72.887  0.00  0.00    -0.084 NA
ENDBRANCH  14  25
BRANCH  12  28
ATOM     28  N   UNL     1      -9.313   5.429  69.619  0.00  0.00    -0.265 NA
ATOM     29  C   UNL     1      -9.813   4.365  68.736  0.00  0.00    +0.090 C 
ATOM     30  C   UNL     1      -8.145   4.792  70.238  0.00  0.00    +0.090 C 
ENDBRANCH  12  28
BRANCH   1  32
ATOM     31  C   UNL     1     -10.566  11.677  64.788  0.00  0.00    +0.112 C 
ATOM     32  N   UNL     1     -11.104  12.071  65.249  0.00  0.00    -0.304 N 
ATOM     33  C   UNL     1     -12.444  12.330  64.704  0.00  0.00    +0.112 C 
ENDBRANCH   1  32
BRANCH  23  34
ATOM     34  N   UNL     1     -11.814  15.807  68.353  0.00  0.00    -0.175 NA
ATOM     35  C   UNL     1     -10.726  16.704  68.453  0.00  0.00    +0.263 C 
ATOM     36  O   UNL     1      -9.729  16.302  69.106  0.00  0.00    -0.271 OA
BRANCH  35  37
ATOM     37  C   UNL     1     -10.572  17.938  67.631  0.00  0.00    +0.176 C 
BRANCH  37  38
ATOM     38  N   UNL     1      -9.267  18.008  67.020  0.00  0.00    -0.211 NA
BRANCH  38  39
ATOM     39  C   UNL     1      -8.688  19.312  67.219  0.00  0.00    +0.060 C 
ATOM     40  C   UNL     1      -7.943  19.324  68.539  0.00  0.00    +0.017 C 
ATOM     41  C   UNL     1      -7.724  19.689  66.127  0.00  0.00    +0.017 C 
ATOM     42  C   UNL     1      -9.781  20.346  67.276  0.00  0.00    +0.017 C 
ENDBRANCH  38  39
ENDBRANCH  37  38
ENDBRANCH  35  37
ENDBRANCH  23  34
TORSDOF 7
ENDMDL
MODEL 6
REMARK VINA RESULT:      -7.0      3.207      9.700
REMARK  Name = 
REMARK  7 active torsions:
REMARK  status: ('A' for Active; 'I' for Inactive)
REMARK    1  A    between atoms: N_2  and  C_4
REMARK    2  A    between atoms: C_6  and  N_7
REMARK    3  A    between atoms: C_8  and  C_10
REMARK    4  A    between atoms: C_10  and  N_11
REMARK    5  A    between atoms: N_11  and  C_12
REMARK    6  A    between atoms: C_24  and  N_25
REMARK    7  A    between atoms: C_30  and  C_31
REMARK                            x       y       z     vdW  Elec       q    Type
REMARK                         _______ _______ _______ _____ _____    ______ ____
ROOT
ATOM      1  C   UNL     1      -9.723  11.418  67.721  0.00  0.00    +0.045 A 
ATOM      2  C   UNL     1      -9.728  10.603  68.848  0.00  0.00    -0.002 A 
ATOM      3  C   UNL     1      -8.601   9.732  69.231  0.00  0.00    +0.032 C 
ATOM      4  C   UNL     1      -9.149   8.214  68.983  0.00  0.00    +0.033 C 
ATOM      5  C   UNL     1     -10.277   8.247  70.116  0.00  0.00    +0.054 C 
ATOM      6  C   UNL     1     -11.001   9.389  70.476  0.00  0.00    +0.197 C 
ATOM      7  O   UNL     1     -12.151   9.244  70.993  0.00  0.00    -0.287 OA
ATOM      8  C   UNL     1     -10.702   6.982  70.180  0.00  0.00    +0.207 C 
ATOM      9  O   UNL     1     -12.008   6.795  70.653  0.00  0.00    -0.289 OA
ATOM     10  C   UNL     1      -9.765   5.872  70.558  0.00  0.00    +0.237 C 
ATOM     11  C   UNL     1      -8.474   6.028  69.628  0.00  0.00    +0.065 C 
ATOM     12  C   UNL     1      -7.272   5.285  70.597  0.00  0.00    +0.124 C 
ATOM     13  C   UNL     1      -7.327   6.244  71.872  0.00  0.00    +0.195 C 
ATOM     14  C   UNL     1      -8.379   6.367  72.579  0.00  0.00    +0.130 C 
ATOM     15  O   UNL     1      -6.081   6.211  72.515  0.00  0.00    -0.290 OA
ATOM     16  O   UNL     1     -10.453   4.720  70.124  0.00  0.00    -0.210 OA
ATOM     17  C   UNL     1      -9.599   5.969  71.932  0.00  0.00    +0.215 C 
ATOM     18  O   UNL     1     -10.662   6.057  72.617  0.00  0.00    -0.288 OA
ATOM     19  C   UNL     1      -8.102   7.555  70.058  0.00  0.00    +0.010 C 
ATOM     20  C   UNL     1     -10.742  10.665  69.798  0.00  0.00    +0.076 A 
ATOM     21  C   UNL     1     -11.613  11.718  69.791  0.00  0.00    +0.214 A 
ATOM     22  O   UNL     1     -12.708  11.696  70.622  0.00  0.00    -0.285 OA
ATOM     23  C   UNL     1     -11.450  12.662  68.797  0.00  0.00    +0.114 A 
ATOM     24  C   UNL     1     -10.834  12.252  67.621  0.00  0.00    +0.034 A 
ENDROOT
BRANCH  14  25
ATOM     25  C   UNL     1      -8.366   7.374  73.651  0.00  0.00    +0.290 C 
ATOM     26  O   UNL     1      -8.633   8.580  73.424  0.00  0.00    -0.266 OA
ATOM     27  N   UNL     1      -8.451   6.909  75.003  0.00  0.00    -0.084 NA
ENDBRANCH  14  25
BRANCH  12  28
ATOM     28  N   UNL     1      -8.193   4.167  71.213  0.00  0.00    -0.265 NA
ATOM     29  C   UNL     1      -7.978   3.142  70.181  0.00  0.00    +0.090 C 
ATOM     30  C   UNL     1      -7.334   3.689  72.304  0.00  0.00    +0.090 C 
ENDBRANCH  12  28
BRANCH   1  32
ATOM     31  C   UNL     1      -8.481  10.950  66.160  0.00  0.00    +0.112 C 
ATOM     32  N   UNL     1      -9.169  10.783  66.554  0.00  0.00    -0.304 N 
ATOM     33  C   UNL     1     -10.163   9.920  65.901  0.00  0.00    +0.112 C 
ENDBRANCH   1  32
BRANCH  23  34
ATOM     34  N   UNL     1     -12.089  13.925  68.940  0.00  0.00    -0.175 NA
ATOM     35  C   UNL     1     -11.322  15.098  69.118  0.00  0.00    +0.263 C 
ATOM     36  O   UNL     1     -10.363  15.020  69.929  0.00  0.00    -0.271 OA
BRANCH  35  37
ATOM     37  C   UNL     1     -11.393  16.295  68.233  0.00  0.00    +0.176 C 
BRANCH  37  38
ATOM     38  N   UNL     1     -10.680  17.415  68.797  0.00  0.00    -0.211 NA
BRANCH  38  39
ATOM     39  C   UNL     1      -9.910  18.085  67.781  0.00  0.00    +0.060 C 
ATOM     40  C   UNL     1      -8.606  18.565  68.386  0.00  0.00    +0.017 C 
ATOM     41  C   UNL     1      -9.590  17.190  66.614  0.00  0.00    +0.017 C 
ATOM     42  C   UNL     1     -10.673  19.282  67.277  0.00  0.00    +0.017 C 
ENDBRANCH  38  39
ENDBRANCH  37  38
ENDBRANCH  35  37
ENDBRANCH  23  34
TORSDOF 7
ENDMDL
MODEL 7
REMARK VINA RESULT:      -6.8      3.424     10.064
REMARK  Name = 
REMARK  7 active torsions:
REMARK  status: ('A' for Active; 'I' for Inactive)
REMARK    1  A    between atoms: N_2  and  C_4
REMARK    2  A    between atoms: C_6  and  N_7
REMARK    3  A    between atoms: C_8  and  C_10
REMARK    4  A    between atoms: C_10  and  N_11
REMARK    5  A    between atoms: N_11  and  C_12
REMARK    6  A    between atoms: C_24  and  N_25
REMARK    7  A    between atoms: C_30  and  C_31
REMARK                            x       y       z     vdW  Elec       q    Type
REMARK                         _______ _______ _______ _____ _____    ______ ____
ROOT
ATOM      1  C   UNL     1      -9.317   8.805  67.156  0.00  0.00    +0.045 A 
ATOM      2  C   UNL     1      -9.272   8.690  68.541  0.00  0.00    -0.002 A 
ATOM      3  C   UNL     1      -8.462   7.682  69.250  0.00  0.00    +0.032 C 
ATOM      4  C   UNL     1      -9.553   6.652  69.894  0.00  0.00    +0.033 C 
ATOM      5  C   UNL     1     -10.207   7.701  70.909  0.00  0.00    +0.054 C 
ATOM      6  C   UNL     1     -10.343   9.069  70.652  0.00  0.00    +0.197 C 
ATOM      7  O   UNL     1     -11.262   9.713  71.245  0.00  0.00    -0.287 OA
ATOM      8  C   UNL     1     -11.009   6.950  71.671  0.00  0.00    +0.207 C 
ATOM      9  O   UNL     1     -12.093   7.613  72.261  0.00  0.00    -0.289 OA
ATOM     10  C   UNL     1     -10.452   5.843  72.518  0.00  0.00    +0.237 C 
ATOM     11  C   UNL     1      -9.527   4.958  71.560  0.00  0.00    +0.065 C 
ATOM     12  C   UNL     1      -8.431   4.279  72.689  0.00  0.00    +0.124 C 
ATOM     13  C   UNL     1      -7.766   5.616  73.252  0.00  0.00    +0.195 C 
ATOM     14  C   UNL     1      -8.447   6.507  73.854  0.00  0.00    +0.130 C 
ATOM     15  O   UNL     1      -6.478   5.315  73.722  0.00  0.00    -0.290 OA
ATOM     16  O   UNL     1     -11.595   5.074  72.818  0.00  0.00    -0.210 OA
ATOM     17  C   UNL     1      -9.862   6.462  73.610  0.00  0.00    +0.215 C 
ATOM     18  O   UNL     1     -10.571   7.321  74.215  0.00  0.00    -0.288 OA
ATOM     19  C   UNL     1      -8.534   6.156  71.078  0.00  0.00    +0.010 C 
ATOM     20  C   UNL     1      -9.869   9.626  69.379  0.00  0.00    +0.076 A 
ATOM     21  C   UNL     1     -10.275  10.827  68.870  0.00  0.00    +0.214 A 
ATOM     22  O   UNL     1     -11.009  11.682  69.658  0.00  0.00    -0.285 OA
ATOM     23  C   UNL     1     -10.096  11.031  67.516  0.00  0.00    +0.114 A 
ATOM     24  C   UNL     1     -10.042   9.905  66.703  0.00  0.00    +0.034 A 
ENDROOT
BRANCH  14  25
ATOM     25  C   UNL     1      -7.764   7.758  74.216  0.00  0.00    +0.290 C 
ATOM     26  O   UNL     1      -7.726   8.738  73.432  0.00  0.00    -0.266 OA
ATOM     27  N   UNL     1      -7.504   7.999  75.604  0.00  0.00    -0.084 NA
ENDBRANCH  14  25
BRANCH  12  28
ATOM     28  N   UNL     1      -9.457   4.115  73.872  0.00  0.00    -0.265 NA
ATOM     29  C   UNL     1      -9.942   2.770  73.529  0.00  0.00    +0.090 C 
ATOM     30  C   UNL     1      -8.538   3.837  74.982  0.00  0.00    +0.090 C 
ENDBRANCH  12  28
BRANCH   1  32
ATOM     31  C   UNL     1      -8.895   7.228  65.917  0.00  0.00    +0.112 C 
ATOM     32  N   UNL     1      -9.394   7.538  66.475  0.00  0.00    -0.304 N 
ATOM     33  C   UNL     1     -10.710   6.914  66.670  0.00  0.00    +0.112 C 
ENDBRANCH   1  32
BRANCH  23  34
ATOM     34  N   UNL     1     -10.179  12.355  67.005  0.00  0.00    -0.175 NA
ATOM     35  C   UNL     1     -11.436  12.927  66.703  0.00  0.00    +0.263 C 
ATOM     36  O   UNL     1     -12.252  12.190  66.091  0.00  0.00    -0.271 OA
BRANCH  35  37
ATOM     37  C   UNL     1     -11.946  14.200  67.287  0.00  0.00    +0.176 C 
BRANCH  37  38
ATOM     38  N   UNL     1     -10.970  15.257  67.188  0.00  0.00    -0.211 NA
BRANCH  38  39
ATOM     39  C   UNL     1     -10.721  15.835  68.483  0.00  0.00    +0.060 C 
ATOM     40  C   UNL     1     -11.937  15.620  69.361  0.00  0.00    +0.017 C 
ATOM     41  C   UNL     1      -9.528  15.227  69.168  0.00  0.00    +0.017 C 
ATOM     42  C   UNL     1     -10.491  17.317  68.338  0.00  0.00    +0.017 C 
ENDBRANCH  38  39
ENDBRANCH  37  38
ENDBRANCH  35  37
ENDBRANCH  23  34
TORSDOF 7
ENDMDL
MODEL 8
REMARK VINA RESULT:      -6.8      3.960      9.395
REMARK  Name = 
REMARK  7 active torsions:
REMARK  status: ('A' for Active; 'I' for Inactive)
REMARK    1  A    between atoms: N_2  and  C_4
REMARK    2  A    between atoms: C_6  and  N_7
REMARK    3  A    between atoms: C_8  and  C_10
REMARK    4  A    between atoms: C_10  and  N_11
REMARK    5  A    between atoms: N_11  and  C_12
REMARK    6  A    between atoms: C_24  and  N_25
REMARK    7  A    between atoms: C_30  and  C_31
REMARK                            x       y       z     vdW  Elec       q    Type
REMARK                         _______ _______ _______ _____ _____    ______ ____
ROOT
ATOM      1  C   UNL     1     -10.636  13.809  64.737  0.00  0.00    +0.045 A 
ATOM      2  C   UNL     1      -9.830  12.914  65.432  0.00  0.00    -0.002 A 
ATOM      3  C   UNL     1      -9.596  11.523  65.002  0.00  0.00    +0.032 C 
ATOM      4  C   UNL     1     -10.374  10.610  66.110  0.00  0.00    +0.033 C 
ATOM      5  C   UNL     1      -9.444  11.007  67.349  0.00  0.00    +0.054 C 
ATOM      6  C   UNL     1      -8.842  12.259  67.515  0.00  0.00    +0.197 C 
ATOM      7  O   UNL     1      -8.550  12.644  68.689  0.00  0.00    -0.287 OA
ATOM      8  C   UNL     1      -9.834  10.175  68.320  0.00  0.00    +0.207 C 
ATOM      9  O   UNL     1      -9.616  10.617  69.632  0.00  0.00    -0.289 OA
ATOM     10  C   UNL     1      -9.703   8.688  68.160  0.00  0.00    +0.237 C 
ATOM     11  C   UNL     1     -10.363   8.322  66.751  0.00  0.00    +0.065 C 
ATOM     12  C   UNL     1      -9.527   6.878  66.357  0.00  0.00    +0.124 C 
ATOM     13  C   UNL     1      -8.035   7.442  66.297  0.00  0.00    +0.195 C 
ATOM     14  C   UNL     1      -7.467   7.958  67.314  0.00  0.00    +0.130 C 
ATOM     15  O   UNL     1      -7.279   6.627  65.442  0.00  0.00    -0.290 OA
ATOM     16  O   UNL     1     -10.560   8.190  69.162  0.00  0.00    -0.210 OA
ATOM     17  C   UNL     1      -8.359   8.405  68.348  0.00  0.00    +0.215 C 
ATOM     18  O   UNL     1      -7.823   8.902  69.385  0.00  0.00    -0.288 OA
ATOM     19  C   UNL     1      -9.433   9.297  65.835  0.00  0.00    +0.010 C 
ATOM     20  C   UNL     1      -9.048  13.310  66.512  0.00  0.00    +0.076 A 
ATOM     21  C   UNL     1      -8.839  14.640  66.743  0.00  0.00    +0.214 A 
ATOM     22  O   UNL     1      -8.205  15.034  67.898  0.00  0.00    -0.285 OA
ATOM     23  C   UNL     1      -9.458  15.533  65.891  0.00  0.00    +0.114 A 
ATOM     24  C   UNL     1     -10.614  15.104  65.248  0.00  0.00    +0.034 A 
ENDROOT
BRANCH  14  25
ATOM     25  C   UNL     1      -6.142   8.566  67.119  0.00  0.00    +0.290 C 
ATOM     26  O   UNL     1      -6.013   9.763  66.763  0.00  0.00    -0.266 OA
ATOM     27  N   UNL     1      -5.017   7.922  67.727  0.00  0.00    -0.084 NA
ENDBRANCH  14  25
BRANCH  12  28
ATOM     28  N   UNL     1      -9.415   6.320  67.824  0.00  0.00    -0.265 NA
ATOM     29  C   UNL     1     -10.714   5.632  67.873  0.00  0.00    +0.090 C 
ATOM     30  C   UNL     1      -8.485   5.204  67.612  0.00  0.00    +0.090 C 
ENDBRANCH  12  28
BRANCH   1  32
ATOM     31  C   UNL     1     -12.073  13.041  63.495  0.00  0.00    +0.112 C 
ATOM     32  N   UNL     1     -11.861  13.226  64.254  0.00  0.00    -0.304 N 
ATOM     33  C   UNL     1     -12.903  13.256  65.290  0.00  0.00    +0.112 C 
ENDBRANCH   1  32
BRANCH  23  34
ATOM     34  N   UNL     1      -9.012  16.883  65.870  0.00  0.00    -0.175 NA
ATOM     35  C   UNL     1      -9.411  17.783  66.884  0.00  0.00    +0.263 C 
ATOM     36  O   UNL     1     -10.625  17.748  67.215  0.00  0.00    -0.271 OA
BRANCH  35  37
ATOM     37  C   UNL     1      -8.471  18.545  67.754  0.00  0.00    +0.176 C 
BRANCH  37  38
ATOM     38  N   UNL     1      -8.135  19.825  67.179  0.00  0.00    -0.211 NA
BRANCH  38  39
ATOM     39  C   UNL     1      -6.731  19.884  66.867  0.00  0.00    +0.060 C 
ATOM     40  C   UNL     1      -6.544  19.632  65.384  0.00  0.00    +0.017 C 
ATOM     41  C   UNL     1      -6.120  21.217  67.202  0.00  0.00    +0.017 C 
ATOM     42  C   UNL     1      -5.999  18.812  67.630  0.00  0.00    +0.017 C 
ENDBRANCH  38  39
ENDBRANCH  37  38
ENDBRANCH  35  37
ENDBRANCH  23  34
TORSDOF 7
ENDMDL
MODEL 9
REMARK VINA RESULT:      -6.6      3.823     10.228
REMARK  Name = 
REMARK  7 active torsions:
REMARK  status: ('A' for Active; 'I' for Inactive)
REMARK    1  A    between atoms: N_2  and  C_4
REMARK    2  A    between atoms: C_6  and  N_7
REMARK    3  A    between atoms: C_8  and  C_10
REMARK    4  A    between atoms: C_10  and  N_11
REMARK    5  A    between atoms: N_11  and  C_12
REMARK    6  A    between atoms: C_24  and  N_25
REMARK    7  A    between atoms: C_30  and  C_31
REMARK                            x       y       z     vdW  Elec       q    Type
REMARK                         _______ _______ _______ _____ _____    ______ ____
ROOT
ATOM      1  C   UNL     1      -8.712   7.530  66.387  0.00  0.00    +0.045 A 
ATOM      2  C   UNL     1      -8.902   7.757  67.745  0.00  0.00    -0.002 A 
ATOM      3  C   UNL     1      -8.385   6.867  68.802  0.00  0.00    +0.032 C 
ATOM      4  C   UNL     1      -9.714   6.165  69.440  0.00  0.00    +0.033 C 
ATOM      5  C   UNL     1     -10.342   7.502  70.053  0.00  0.00    +0.054 C 
ATOM      6  C   UNL     1     -10.215   8.771  69.476  0.00  0.00    +0.197 C 
ATOM      7  O   UNL     1     -11.100   9.645  69.726  0.00  0.00    -0.287 OA
ATOM      8  C   UNL     1     -11.362   7.064  70.796  0.00  0.00    +0.207 C 
ATOM      9  O   UNL     1     -12.405   7.976  71.007  0.00  0.00    -0.289 OA
ATOM     10  C   UNL     1     -11.129   6.143  71.959  0.00  0.00    +0.237 C 
ATOM     11  C   UNL     1     -10.220   4.945  71.416  0.00  0.00    +0.065 C 
ATOM     12  C   UNL     1      -9.437   4.442  72.855  0.00  0.00    +0.124 C 
ATOM     13  C   UNL     1      -8.662   5.788  73.221  0.00  0.00    +0.195 C 
ATOM     14  C   UNL     1      -9.277   6.875  73.469  0.00  0.00    +0.130 C 
ATOM     15  O   UNL     1      -7.529   5.464  73.982  0.00  0.00    -0.290 OA
ATOM     16  O   UNL     1     -12.413   5.613  72.200  0.00  0.00    -0.210 OA
ATOM     17  C   UNL     1     -10.625   6.939  72.977  0.00  0.00    +0.215 C 
ATOM     18  O   UNL     1     -11.274   7.999  73.229  0.00  0.00    -0.288 OA
ATOM     19  C   UNL     1      -8.985   5.861  70.876  0.00  0.00    +0.010 C 
ATOM     20  C   UNL     1      -9.465   8.935  68.225  0.00  0.00    +0.076 A 
ATOM     21  C   UNL     1      -9.590  10.012  67.393  0.00  0.00    +0.214 A 
ATOM     22  O   UNL     1     -10.291  11.116  67.818  0.00  0.00    -0.285 OA
ATOM     23  C   UNL     1      -9.171   9.851  66.088  0.00  0.00    +0.114 A 
ATOM     24  C   UNL     1      -9.172   8.561  65.571  0.00  0.00    +0.034 A 
ENDROOT
BRANCH  14  25
ATOM     25  C   UNL     1      -8.468   8.087  73.666  0.00  0.00    +0.290 C 
ATOM     26  O   UNL     1      -7.937   8.352  74.773  0.00  0.00    -0.266 OA
ATOM     27  N   UNL     1      -7.952   8.741  72.501  0.00  0.00    -0.084 NA
ENDBRANCH  14  25
BRANCH  12  28
ATOM     28  N   UNL     1     -10.647   4.699  73.827  0.00  0.00    -0.265 NA
ATOM     29  C   UNL     1     -11.304   3.392  73.676  0.00  0.00    +0.090 C 
ATOM     30  C   UNL     1      -9.977   4.558  75.126  0.00  0.00    +0.090 C 
ENDBRANCH  12  28
BRANCH   1  32
ATOM     31  C   UNL     1      -8.368   5.663  65.614  0.00  0.00    +0.112 C 
ATOM     32  N   UNL     1      -8.884   6.152  66.004  0.00  0.00    -0.304 N 
ATOM     33  C   UNL     1     -10.290   5.742  66.126  0.00  0.00    +0.112 C 
ENDBRANCH   1  32
BRANCH  23  34
ATOM     34  N   UNL     1      -8.960  11.008  65.288  0.00  0.00    -0.175 NA
ATOM     35  C   UNL     1      -9.964  11.455  64.399  0.00  0.00    +0.263 C 
ATOM     36  O   UNL     1     -10.536  10.570  63.712  0.00  0.00    -0.271 OA
BRANCH  35  37
ATOM     37  C   UNL     1     -10.567  12.818  64.424  0.00  0.00    +0.176 C 
BRANCH  37  38
ATOM     38  N   UNL     1     -10.156  13.559  65.591  0.00  0.00    -0.211 NA
BRANCH  38  39
ATOM     39  C   UNL     1     -11.106  14.600  65.887  0.00  0.00    +0.060 C 
ATOM     40  C   UNL     1     -10.928  15.036  67.327  0.00  0.00    +0.017 C 
ATOM     41  C   UNL     1     -10.937  15.805  65.002  0.00  0.00    +0.017 C 
ATOM     42  C   UNL     1     -12.506  14.069  65.717  0.00  0.00    +0.017 C 
ENDBRANCH  38  39
ENDBRANCH  37  38
ENDBRANCH  35  37
ENDBRANCH  23  34
TORSDOF 7
ENDMDL
