MODEL 1
REMARK VINA RESULT:      -4.5      0.000      0.000
REMARK  Name = 
REMARK  5 active torsions:
REMARK  status: ('A' for Active; 'I' for Inactive)
REMARK    1  A    between atoms: N_2  and  N_3
REMARK    2  A    between atoms: N_3  and  C_4
REMARK    3  A    between atoms: C_4  and  C_5
REMARK    4  A    between atoms: N_9  and  C_10
REMARK    5  A    between atoms: C_10  and  C_11
REMARK                            x       y       z     vdW  Elec       q    Type
REMARK                         _______ _______ _______ _____ _____    ______ ____
ROOT
ATOM      1  N   UNL     1     -10.852  16.287  65.879  0.00  0.00    -0.127 N 
ATOM      2  C   UNL     1     -10.901  14.871  65.665  0.00  0.00    +0.345 C 
ATOM      3  N   UNL     1     -12.112  14.140  65.866  0.00  0.00    -0.186 NA
ATOM      4  O   UNL     1      -9.838  14.336  65.255  0.00  0.00    -0.249 OA
ENDROOT
BRANCH   1   6
ATOM      5  O   UNL     1     -11.738  16.633  63.835  0.00  0.00    -0.126 OA
ATOM      6  N   UNL     1     -11.012  17.100  64.739  0.00  0.00    +0.053 NA
ENDBRANCH   1   6
BRANCH   3   7
ATOM      7  C   UNL     1     -12.061  12.705  65.782  0.00  0.00    +0.134 C 
BRANCH   7   8
ATOM      8  C   UNL     1     -12.469  12.178  64.424  0.00  0.00    +0.118 C 
ATOM      9 CL   UNL     1     -11.085  11.441  63.583  0.00  0.00    -0.112 Cl
ENDBRANCH   7   8
ENDBRANCH   3   7
BRANCH   1  10
ATOM     10  C   UNL     1      -9.817  16.719  66.815  0.00  0.00    +0.141 C 
BRANCH  10  11
ATOM     11  C   UNL     1     -10.381  17.486  67.979  0.00  0.00    +0.119 C 
ATOM     12 CL   UNL     1     -10.526  19.194  67.543  0.00  0.00    -0.112 Cl
ENDBRANCH  10  11
ENDBRANCH   1  10
TORSDOF 5
ENDMDL
MODEL 2
REMARK VINA RESULT:      -4.4      1.939      5.405
REMARK  Name = 
REMARK  5 active torsions:
REMARK  status: ('A' for Active; 'I' for Inactive)
REMARK    1  A    between atoms: N_2  and  N_3
REMARK    2  A    between atoms: N_3  and  C_4
REMARK    3  A    between atoms: C_4  and  C_5
REMARK    4  A    between atoms: N_9  and  C_10
REMARK    5  A    between atoms: C_10  and  C_11
REMARK                            x       y       z     vdW  Elec       q    Type
REMARK                         _______ _______ _______ _____ _____    ______ ____
ROOT
ATOM      1  N   UNL     1     -10.568  16.112  65.205  0.00  0.00    -0.127 N 
ATOM      2  C   UNL     1      -9.958  16.961  66.185  0.00  0.00    +0.345 C 
ATOM      3  N   UNL     1      -8.617  17.425  66.021  0.00  0.00    -0.186 NA
ATOM      4  O   UNL     1     -10.684  17.296  67.157  0.00  0.00    -0.249 OA
ENDROOT
BRANCH   1   6
ATOM      5  O   UNL     1     -12.316  16.064  63.783  0.00  0.00    -0.126 OA
ATOM      6  N   UNL     1     -11.376  16.748  64.241  0.00  0.00    +0.053 NA
ENDBRANCH   1   6
BRANCH   3   7
ATOM      7  C   UNL     1      -8.010  18.148  67.107  0.00  0.00    +0.134 C 
BRANCH   7   8
ATOM      8  C   UNL     1      -7.960  19.641  66.869  0.00  0.00    +0.118 C 
ATOM      9 CL   UNL     1      -9.471  20.422  67.390  0.00  0.00    -0.112 Cl
ENDBRANCH   7   8
ENDBRANCH   3   7
BRANCH   1  10
ATOM     10  C   UNL     1     -11.099  14.861  65.739  0.00  0.00    +0.141 C 
BRANCH  10  11
ATOM     11  C   UNL     1     -10.182  13.696  65.488  0.00  0.00    +0.119 C 
ATOM     12 CL   UNL     1     -10.715  12.829  64.041  0.00  0.00    -0.112 Cl
ENDBRANCH  10  11
ENDBRANCH   1  10
TORSDOF 5
ENDMDL
MODEL 3
REMARK VINA RESULT:      -4.4      1.544      5.135
REMARK  Name = 
REMARK  5 active torsions:
REMARK  status: ('A' for Active; 'I' for Inactive)
REMARK    1  A    between atoms: N_2  and  N_3
REMARK    2  A    between atoms: N_3  and  C_4
REMARK    3  A    between atoms: C_4  and  C_5
REMARK    4  A    between atoms: N_9  and  C_10
REMARK    5  A    between atoms: C_10  and  C_11
REMARK                            x       y       z     vdW  Elec       q    Type
REMARK                         _______ _______ _______ _____ _____    ______ ____
ROOT
ATOM      1  N   UNL     1     -10.832  14.890  64.902  0.00  0.00    -0.127 N 
ATOM      2  C   UNL     1     -10.298  15.690  65.964  0.00  0.00    +0.345 C 
ATOM      3  N   UNL     1      -9.143  16.505  65.759  0.00  0.00    -0.186 NA
ATOM      4  O   UNL     1     -10.929  15.658  67.053  0.00  0.00    -0.249 OA
ENDROOT
BRANCH   1   6
ATOM      5  O   UNL     1     -11.774  16.650  63.854  0.00  0.00    -0.126 OA
ATOM      6  N   UNL     1     -11.901  15.449  64.173  0.00  0.00    +0.053 NA
ENDBRANCH   1   6
BRANCH   3   7
ATOM      7  C   UNL     1      -8.566  17.167  66.899  0.00  0.00    +0.134 C 
BRANCH   7   8
ATOM      8  C   UNL     1      -8.784  18.664  66.887  0.00  0.00    +0.118 C 
ATOM      9 CL   UNL     1     -10.427  19.076  67.430  0.00  0.00    -0.112 Cl
ENDBRANCH   7   8
ENDBRANCH   3   7
BRANCH   1  10
ATOM     10  C   UNL     1     -10.969  13.473  65.227  0.00  0.00    +0.141 C 
BRANCH  10  11
ATOM     11  C   UNL     1     -12.358  12.958  64.966  0.00  0.00    +0.119 C 
ATOM     12 CL   UNL     1     -12.367  12.025  63.463  0.00  0.00    -0.112 Cl
ENDBRANCH  10  11
ENDBRANCH   1  10
TORSDOF 5
ENDMDL
MODEL 4
REMARK VINA RESULT:      -4.3      1.853      2.049
REMARK  Name = 
REMARK  5 active torsions:
REMARK  status: ('A' for Active; 'I' for Inactive)
REMARK    1  A    between atoms: N_2  and  N_3
REMARK    2  A    between atoms: N_3  and  C_4
REMARK    3  A    between atoms: C_4  and  C_5
REMARK    4  A    between atoms: N_9  and  C_10
REMARK    5  A    between atoms: C_10  and  C_11
REMARK                            x       y       z     vdW  Elec       q    Type
REMARK                         _______ _______ _______ _____ _____    ______ ____
ROOT
ATOM      1  N   UNL     1     -10.868  16.434  65.671  0.00  0.00    -0.127 N 
ATOM      2  C   UNL     1     -10.712  15.046  65.990  0.00  0.00    +0.345 C 
ATOM      3  N   UNL     1     -11.800  14.289  66.523  0.00  0.00    -0.186 NA
ATOM      4  O   UNL     1      -9.588  14.542  65.734  0.00  0.00    -0.249 OA
ENDROOT
BRANCH   1   6
ATOM      5  O   UNL     1     -12.195  16.217  63.861  0.00  0.00    -0.126 OA
ATOM      6  N   UNL     1     -11.160  16.739  64.326  0.00  0.00    +0.053 NA
ENDBRANCH   1   6
BRANCH   3   7
ATOM      7  C   UNL     1     -11.542  12.944  66.964  0.00  0.00    +0.134 C 
BRANCH   7   8
ATOM      8  C   UNL     1     -11.752  12.760  68.451  0.00  0.00    +0.118 C 
ATOM      9 CL   UNL     1     -11.909  11.037  68.866  0.00  0.00    -0.112 Cl
ENDBRANCH   7   8
ENDBRANCH   3   7
BRANCH   1  10
ATOM     10  C   UNL     1      -9.895  17.313  66.315  0.00  0.00    +0.141 C 
BRANCH  10  11
ATOM     11  C   UNL     1     -10.386  17.842  67.634  0.00  0.00    +0.119 C 
ATOM     12 CL   UNL     1     -10.501  19.606  67.554  0.00  0.00    -0.112 Cl
ENDBRANCH  10  11
ENDBRANCH   1  10
TORSDOF 5
ENDMDL
MODEL 5
REMARK VINA RESULT:      -4.2      3.506      3.700
REMARK  Name = 
REMARK  5 active torsions:
REMARK  status: ('A' for Active; 'I' for Inactive)
REMARK    1  A    between atoms: N_2  and  N_3
REMARK    2  A    between atoms: N_3  and  C_4
REMARK    3  A    between atoms: C_4  and  C_5
REMARK    4  A    between atoms: N_9  and  C_10
REMARK    5  A    between atoms: C_10  and  C_11
REMARK                            x       y       z     vdW  Elec       q    Type
REMARK                         _______ _______ _______ _____ _____    ______ ____
ROOT
ATOM      1  N   UNL     1     -10.561  16.792  66.317  0.00  0.00    -0.127 N 
ATOM      2  C   UNL     1     -10.435  15.813  67.355  0.00  0.00    +0.345 C 
ATOM      3  N   UNL     1     -11.589  15.290  68.014  0.00  0.00    -0.186 NA
ATOM      4  O   UNL     1      -9.265  15.424  67.611  0.00  0.00    -0.249 OA
ENDROOT
BRANCH   1   6
ATOM      5  O   UNL     1     -11.350  16.857  64.206  0.00  0.00    -0.126 OA
ATOM      6  N   UNL     1     -10.550  16.308  64.993  0.00  0.00    +0.053 NA
ENDBRANCH   1   6
BRANCH   3   7
ATOM      7  C   UNL     1     -11.393  14.425  69.147  0.00  0.00    +0.134 C 
BRANCH   7   8
ATOM      8  C   UNL     1     -12.327  14.735  70.295  0.00  0.00    +0.118 C 
ATOM      9 CL   UNL     1     -11.730  16.110  71.252  0.00  0.00    -0.112 Cl
ENDBRANCH   7   8
ENDBRANCH   3   7
BRANCH   1  10
ATOM     10  C   UNL     1      -9.789  18.012  66.542  0.00  0.00    +0.141 C 
BRANCH  10  11
ATOM     11  C   UNL     1     -10.661  19.185  66.894  0.00  0.00    +0.119 C 
ATOM     12 CL   UNL     1      -9.646  20.539  67.411  0.00  0.00    -0.112 Cl
ENDBRANCH  10  11
ENDBRANCH   1  10
TORSDOF 5
ENDMDL
MODEL 6
REMARK VINA RESULT:      -4.2      2.173      2.607
REMARK  Name = 
REMARK  5 active torsions:
REMARK  status: ('A' for Active; 'I' for Inactive)
REMARK    1  A    between atoms: N_2  and  N_3
REMARK    2  A    between atoms: N_3  and  C_4
REMARK    3  A    between atoms: C_4  and  C_5
REMARK    4  A    between atoms: N_9  and  C_10
REMARK    5  A    between atoms: C_10  and  C_11
REMARK                            x       y       z     vdW  Elec       q    Type
REMARK                         _______ _______ _______ _____ _____    ______ ____
ROOT
ATOM      1  N   UNL     1      -9.977  16.933  67.647  0.00  0.00    -0.127 N 
ATOM      2  C   UNL     1     -10.301  16.371  66.369  0.00  0.00    +0.345 C 
ATOM      3  N   UNL     1     -10.398  14.957  66.194  0.00  0.00    -0.186 NA
ATOM      4  O   UNL     1     -10.529  17.194  65.445  0.00  0.00    -0.249 OA
ENDROOT
BRANCH   1   6
ATOM      5  O   UNL     1     -11.770  16.446  68.924  0.00  0.00    -0.126 OA
ATOM      6  N   UNL     1     -11.064  17.355  68.440  0.00  0.00    +0.053 NA
ENDBRANCH   1   6
BRANCH   3   7
ATOM      7  C   UNL     1     -10.576  14.448  64.860  0.00  0.00    +0.134 C 
BRANCH   7   8
ATOM      8  C   UNL     1     -12.009  14.068  64.559  0.00  0.00    +0.118 C 
ATOM      9 CL   UNL     1     -12.086  12.803  63.310  0.00  0.00    -0.112 Cl
ENDBRANCH   7   8
ENDBRANCH   3   7
BRANCH   1  10
ATOM     10  C   UNL     1      -8.826  17.832  67.636  0.00  0.00    +0.141 C 
BRANCH  10  11
ATOM     11  C   UNL     1      -9.103  19.127  68.347  0.00  0.00    +0.119 C 
ATOM     12 CL   UNL     1      -9.773  20.295  67.199  0.00  0.00    -0.112 Cl
ENDBRANCH  10  11
ENDBRANCH   1  10
TORSDOF 5
ENDMDL
MODEL 7
REMARK VINA RESULT:      -4.1      3.553      4.418
REMARK  Name = 
REMARK  5 active torsions:
REMARK  status: ('A' for Active; 'I' for Inactive)
REMARK    1  A    between atoms: N_2  and  N_3
REMARK    2  A    between atoms: N_3  and  C_4
REMARK    3  A    between atoms: C_4  and  C_5
REMARK    4  A    between atoms: N_9  and  C_10
REMARK    5  A    between atoms: C_10  and  C_11
REMARK                            x       y       z     vdW  Elec       q    Type
REMARK                         _______ _______ _______ _____ _____    ______ ____
ROOT
ATOM      1  N   UNL     1     -11.982  12.941  65.479  0.00  0.00    -0.127 N 
ATOM      2  C   UNL     1     -11.565  11.946  66.423  0.00  0.00    +0.345 C 
ATOM      3  N   UNL     1     -12.014  11.986  67.778  0.00  0.00    -0.186 NA
ATOM      4  O   UNL     1     -10.827  11.031  65.973  0.00  0.00    -0.249 OA
ENDROOT
BRANCH   1   6
ATOM      5  O   UNL     1     -12.803  12.280  63.487  0.00  0.00    -0.126 OA
ATOM      6  N   UNL     1     -13.079  12.608  64.661  0.00  0.00    +0.053 NA
ENDBRANCH   1   6
BRANCH   3   7
ATOM      7  C   UNL     1     -11.444  11.052  68.712  0.00  0.00    +0.134 C 
BRANCH   7   8
ATOM      8  C   UNL     1     -11.799  11.362  70.150  0.00  0.00    +0.118 C 
ATOM      9 CL   UNL     1     -12.998  10.207  70.776  0.00  0.00    -0.112 Cl
ENDBRANCH   7   8
ENDBRANCH   3   7
BRANCH   1  10
ATOM     10  C   UNL     1     -10.883  13.627  64.804  0.00  0.00    +0.141 C 
BRANCH  10  11
ATOM     11  C   UNL     1     -10.915  15.114  65.026  0.00  0.00    +0.119 C 
ATOM     12 CL   UNL     1     -10.870  15.450  66.763  0.00  0.00    -0.112 Cl
ENDBRANCH  10  11
ENDBRANCH   1  10
TORSDOF 5
ENDMDL
MODEL 8
REMARK VINA RESULT:      -4.1      1.644      4.903
REMARK  Name = 
REMARK  5 active torsions:
REMARK  status: ('A' for Active; 'I' for Inactive)
REMARK    1  A    between atoms: N_2  and  N_3
REMARK    2  A    between atoms: N_3  and  C_4
REMARK    3  A    between atoms: C_4  and  C_5
REMARK    4  A    between atoms: N_9  and  C_10
REMARK    5  A    between atoms: C_10  and  C_11
REMARK                            x       y       z     vdW  Elec       q    Type
REMARK                         _______ _______ _______ _____ _____    ______ ____
ROOT
ATOM      1  N   UNL     1     -11.397  14.583  64.778  0.00  0.00    -0.127 N 
ATOM      2  C   UNL     1     -11.354  14.712  66.204  0.00  0.00    +0.345 C 
ATOM      3  N   UNL     1     -10.279  15.399  66.846  0.00  0.00    -0.186 NA
ATOM      4  O   UNL     1     -12.329  14.225  66.834  0.00  0.00    -0.249 OA
ENDROOT
BRANCH   1   6
ATOM      5  O   UNL     1     -11.641  16.644  63.899  0.00  0.00    -0.126 OA
ATOM      6  N   UNL     1     -12.177  15.531  64.086  0.00  0.00    +0.053 NA
ENDBRANCH   1   6
BRANCH   3   7
ATOM      7  C   UNL     1     -10.212  15.366  68.283  0.00  0.00    +0.134 C 
BRANCH   7   8
ATOM      8  C   UNL     1     -10.488  16.711  68.919  0.00  0.00    +0.118 C 
ATOM      9 CL   UNL     1     -10.589  17.991  67.689  0.00  0.00    -0.112 Cl
ENDBRANCH   7   8
ENDBRANCH   3   7
BRANCH   1  10
ATOM     10  C   UNL     1     -11.517  13.207  64.301  0.00  0.00    +0.141 C 
BRANCH  10  11
ATOM     11  C   UNL     1     -10.258  12.414  64.520  0.00  0.00    +0.119 C 
ATOM     12 CL   UNL     1     -10.521  10.741  64.006  0.00  0.00    -0.112 Cl
ENDBRANCH  10  11
ENDBRANCH   1  10
TORSDOF 5
ENDMDL
MODEL 9
REMARK VINA RESULT:      -4.1      3.988      5.696
REMARK  Name = 
REMARK  5 active torsions:
REMARK  status: ('A' for Active; 'I' for Inactive)
REMARK    1  A    between atoms: N_2  and  N_3
REMARK    2  A    between atoms: N_3  and  C_4
REMARK    3  A    between atoms: C_4  and  C_5
REMARK    4  A    between atoms: N_9  and  C_10
REMARK    5  A    between atoms: C_10  and  C_11
REMARK                            x       y       z     vdW  Elec       q    Type
REMARK                         _______ _______ _______ _____ _____    ______ ____
ROOT
ATOM      1  N   UNL     1     -11.612  12.861  66.096  0.00  0.00    -0.127 N 
ATOM      2  C   UNL     1     -11.774  12.430  67.453  0.00  0.00    +0.345 C 
ATOM      3  N   UNL     1     -11.955  13.377  68.507  0.00  0.00    -0.186 NA
ATOM      4  O   UNL     1     -11.787  11.185  67.641  0.00  0.00    -0.249 OA
ENDROOT
BRANCH   1   6
ATOM      5  O   UNL     1     -13.314  13.976  65.127  0.00  0.00    -0.126 OA
ATOM      6  N   UNL     1     -12.773  12.863  65.297  0.00  0.00    +0.053 NA
ENDBRANCH   1   6
BRANCH   3   7
ATOM      7  C   UNL     1     -11.960  12.894  69.862  0.00  0.00    +0.134 C 
BRANCH   7   8
ATOM      8  C   UNL     1     -12.619  13.853  70.829  0.00  0.00    +0.118 C 
ATOM      9 CL   UNL     1     -13.497  12.974  72.102  0.00  0.00    -0.112 Cl
ENDBRANCH   7   8
ENDBRANCH   3   7
BRANCH   1  10
ATOM     10  C   UNL     1     -10.405  12.359  65.444  0.00  0.00    +0.141 C 
BRANCH  10  11
ATOM     11  C   UNL     1     -10.712  11.572  64.200  0.00  0.00    +0.119 C 
ATOM     12 CL   UNL     1      -9.910   9.997  64.287  0.00  0.00    -0.112 Cl
ENDBRANCH  10  11
ENDBRANCH   1  10
TORSDOF 5
ENDMDL
