MODEL 1
REMARK VINA RESULT:      -4.9      0.000      0.000
REMARK  Name = 
REMARK  0 active torsions:
REMARK  status: ('A' for Active; 'I' for Inactive)
REMARK                            x       y       z     vdW  Elec       q    Type
REMARK                         _______ _______ _______ _____ _____    ______ ____
ROOT
ATOM      1  C   UNL     1     -12.014  15.505  68.947  0.00  0.00    +0.044 C 
ATOM      2  C   UNL     1     -10.879  16.393  69.674  0.00  0.00    +0.163 C 
ATOM      3  S   UNL     1      -9.442  15.287  69.005  0.00  0.00    -0.109 S 
ATOM      4  C   UNL     1      -8.480  16.827  68.807  0.00  0.00    +0.088 C 
ATOM      5  C   UNL     1      -9.570  17.663  68.252  0.00  0.00    +0.118 C 
ATOM      6  C   UNL     1      -9.156  19.118  68.459  0.00  0.00    +0.030 C 
ATOM      7  C   UNL     1     -10.171  20.053  67.852  0.00  0.00    +0.020 C 
ATOM      8  C   UNL     1     -10.522  19.606  66.460  0.00  0.00    +0.072 C 
ATOM      9  N   UNL     1      -9.478  18.698  66.016  0.00  0.00    -0.271 NA
ATOM     10  C   UNL     1      -8.148  19.273  66.209  0.00  0.00    +0.072 C 
ATOM     11  C   UNL     1      -7.855  19.337  67.695  0.00  0.00    +0.020 C 
ATOM     12  C   UNL     1      -9.470  17.455  66.735  0.00  0.00    +0.100 C 
ATOM     13  O   UNL     1     -10.796  17.348  68.562  0.00  0.00    -0.348 OA
ENDROOT
TORSDOF 0
ENDMDL
MODEL 2
REMARK VINA RESULT:      -4.7      4.754      5.687
REMARK  Name = 
REMARK  0 active torsions:
REMARK  status: ('A' for Active; 'I' for Inactive)
REMARK                            x       y       z     vdW  Elec       q    Type
REMARK                         _______ _______ _______ _____ _____    ______ ____
ROOT
ATOM      1  C   UNL     1     -12.044  13.761  69.482  0.00  0.00    +0.044 C 
ATOM      2  C   UNL     1     -10.768  13.231  68.648  0.00  0.00    +0.163 C 
ATOM      3  S   UNL     1     -11.556  11.490  68.355  0.00  0.00    -0.109 S 
ATOM      4  C   UNL     1     -10.810  11.542  66.688  0.00  0.00    +0.088 C 
ATOM      5  C   UNL     1     -11.129  12.955  66.380  0.00  0.00    +0.118 C 
ATOM      6  C   UNL     1     -10.190  13.381  65.254  0.00  0.00    +0.030 C 
ATOM      7  C   UNL     1     -10.491  14.791  64.812  0.00  0.00    +0.020 C 
ATOM      8  C   UNL     1     -11.970  14.965  64.606  0.00  0.00    +0.072 C 
ATOM      9  N   UNL     1     -12.555  13.639  64.488  0.00  0.00    -0.271 NA
ATOM     10  C   UNL     1     -11.843  12.825  63.505  0.00  0.00    +0.072 C 
ATOM     11  C   UNL     1     -10.472  12.483  64.056  0.00  0.00    +0.020 C 
ATOM     12  C   UNL     1     -12.510  12.894  65.714  0.00  0.00    +0.100 C 
ATOM     13  O   UNL     1     -11.265  13.780  67.380  0.00  0.00    -0.348 OA
ENDROOT
TORSDOF 0
ENDMDL
MODEL 3
REMARK VINA RESULT:      -4.5      5.035      6.330
REMARK  Name = 
REMARK  0 active torsions:
REMARK  status: ('A' for Active; 'I' for Inactive)
REMARK                            x       y       z     vdW  Elec       q    Type
REMARK                         _______ _______ _______ _____ _____    ______ ____
ROOT
ATOM      1  C   UNL     1      -9.174  11.192  62.728  0.00  0.00    +0.044 C 
ATOM      2  C   UNL     1     -10.581  11.066  63.509  0.00  0.00    +0.163 C 
ATOM      3  S   UNL     1      -9.738  10.443  65.133  0.00  0.00    -0.109 S 
ATOM      4  C   UNL     1     -10.971  11.442  66.040  0.00  0.00    +0.088 C 
ATOM      5  C   UNL     1     -10.922  12.639  65.170  0.00  0.00    +0.118 C 
ATOM      6  C   UNL     1     -12.209  13.420  65.427  0.00  0.00    +0.030 C 
ATOM      7  C   UNL     1     -12.219  14.707  64.640  0.00  0.00    +0.020 C 
ATOM      8  C   UNL     1     -10.908  15.425  64.804  0.00  0.00    +0.072 C 
ATOM      9  N   UNL     1     -10.248  14.870  65.974  0.00  0.00    -0.271 NA
ATOM     10  C   UNL     1     -11.138  14.850  67.133  0.00  0.00    +0.072 C 
ATOM     11  C   UNL     1     -12.219  13.814  66.899  0.00  0.00    +0.020 C 
ATOM     12  C   UNL     1      -9.822  13.512  65.789  0.00  0.00    +0.100 C 
ATOM     13  O   UNL     1     -10.571  12.474  63.926  0.00  0.00    -0.348 OA
ENDROOT
TORSDOF 0
ENDMDL
MODEL 4
REMARK VINA RESULT:      -4.5      1.321      1.420
REMARK  Name = 
REMARK  0 active torsions:
REMARK  status: ('A' for Active; 'I' for Inactive)
REMARK                            x       y       z     vdW  Elec       q    Type
REMARK                         _______ _______ _______ _____ _____    ______ ____
ROOT
ATOM      1  C   UNL     1     -11.113  14.786  66.131  0.00  0.00    +0.044 C 
ATOM      2  C   UNL     1     -10.884  15.473  67.574  0.00  0.00    +0.163 C 
ATOM      3  S   UNL     1      -9.038  14.906  67.663  0.00  0.00    -0.109 S 
ATOM      4  C   UNL     1      -8.683  16.519  68.444  0.00  0.00    +0.088 C 
ATOM      5  C   UNL     1      -9.532  17.350  67.560  0.00  0.00    +0.118 C 
ATOM      6  C   UNL     1      -9.791  18.658  68.303  0.00  0.00    +0.030 C 
ATOM      7  C   UNL     1     -10.587  19.611  67.447  0.00  0.00    +0.020 C 
ATOM      8  C   UNL     1      -9.998  19.684  66.066  0.00  0.00    +0.072 C 
ATOM      9  N   UNL     1      -8.644  19.160  66.140  0.00  0.00    -0.271 NA
ATOM     10  C   UNL     1      -7.883  19.789  67.216  0.00  0.00    +0.072 C 
ATOM     11  C   UNL     1      -8.440  19.322  68.546  0.00  0.00    +0.020 C 
ATOM     12  C   UNL     1      -8.601  17.750  66.408  0.00  0.00    +0.100 C 
ATOM     13  O   UNL     1     -10.558  16.781  66.991  0.00  0.00    -0.348 OA
ENDROOT
TORSDOF 0
ENDMDL
MODEL 5
REMARK VINA RESULT:      -4.5      5.269      6.509
REMARK  Name = 
REMARK  0 active torsions:
REMARK  status: ('A' for Active; 'I' for Inactive)
REMARK                            x       y       z     vdW  Elec       q    Type
REMARK                         _______ _______ _______ _____ _____    ______ ____
ROOT
ATOM      1  C   UNL     1      -9.492   9.564  67.526  0.00  0.00    +0.044 C 
ATOM      2  C   UNL     1     -11.004  10.130  67.495  0.00  0.00    +0.163 C 
ATOM      3  S   UNL     1     -10.601  11.560  68.731  0.00  0.00    -0.109 S 
ATOM      4  C   UNL     1     -11.722  12.604  67.736  0.00  0.00    +0.088 C 
ATOM      5  C   UNL     1     -11.270  12.150  66.401  0.00  0.00    +0.118 C 
ATOM      6  C   UNL     1     -12.381  12.508  65.417  0.00  0.00    +0.030 C 
ATOM      7  C   UNL     1     -11.981  12.154  64.007  0.00  0.00    +0.020 C 
ATOM      8  C   UNL     1     -10.592  12.655  63.722  0.00  0.00    +0.072 C 
ATOM      9  N   UNL     1     -10.274  13.658  64.724  0.00  0.00    -0.271 NA
ATOM     10  C   UNL     1     -11.328  14.664  64.830  0.00  0.00    +0.072 C 
ATOM     11  C   UNL     1     -12.554  14.022  65.450  0.00  0.00    +0.020 C 
ATOM     12  C   UNL     1     -10.127  13.109  66.042  0.00  0.00    +0.100 C 
ATOM     13  O   UNL     1     -10.759  10.955  66.305  0.00  0.00    -0.348 OA
ENDROOT
TORSDOF 0
ENDMDL
MODEL 6
REMARK VINA RESULT:      -4.4      2.376      3.644
REMARK  Name = 
REMARK  0 active torsions:
REMARK  status: ('A' for Active; 'I' for Inactive)
REMARK                            x       y       z     vdW  Elec       q    Type
REMARK                         _______ _______ _______ _____ _____    ______ ____
ROOT
ATOM      1  C   UNL     1      -5.193  17.354  68.546  0.00  0.00    +0.044 C 
ATOM      2  C   UNL     1      -6.089  18.574  69.107  0.00  0.00    +0.163 C 
ATOM      3  S   UNL     1      -5.523  19.770  67.699  0.00  0.00    -0.109 S 
ATOM      4  C   UNL     1      -7.232  20.416  67.694  0.00  0.00    +0.088 C 
ATOM      5  C   UNL     1      -7.928  19.114  67.813  0.00  0.00    +0.118 C 
ATOM      6  C   UNL     1      -9.336  19.414  68.320  0.00  0.00    +0.030 C 
ATOM      7  C   UNL     1     -10.156  18.151  68.399  0.00  0.00    +0.020 C 
ATOM      8  C   UNL     1     -10.012  17.358  67.129  0.00  0.00    +0.072 C 
ATOM      9  N   UNL     1      -9.492  18.255  66.110  0.00  0.00    -0.271 NA
ATOM     10  C   UNL     1     -10.269  19.489  66.033  0.00  0.00    +0.072 C 
ATOM     11  C   UNL     1     -10.015  20.305  67.286  0.00  0.00    +0.020 C 
ATOM     12  C   UNL     1      -8.139  18.665  66.360  0.00  0.00    +0.100 C 
ATOM     13  O   UNL     1      -7.290  18.133  68.387  0.00  0.00    -0.348 OA
ENDROOT
TORSDOF 0
ENDMDL
MODEL 7
REMARK VINA RESULT:      -4.2      4.617      6.292
REMARK  Name = 
REMARK  0 active torsions:
REMARK  status: ('A' for Active; 'I' for Inactive)
REMARK                            x       y       z     vdW  Elec       q    Type
REMARK                         _______ _______ _______ _____ _____    ______ ____
ROOT
ATOM      1  C   UNL     1      -7.882  14.513  67.732  0.00  0.00    +0.044 C 
ATOM      2  C   UNL     1      -9.390  14.026  68.039  0.00  0.00    +0.163 C 
ATOM      3  S   UNL     1     -10.168  15.629  67.291  0.00  0.00    -0.109 S 
ATOM      4  C   UNL     1     -11.494  14.559  66.629  0.00  0.00    +0.088 C 
ATOM      5  C   UNL     1     -10.630  13.445  66.175  0.00  0.00    +0.118 C 
ATOM      6  C   UNL     1     -11.532  12.221  66.032  0.00  0.00    +0.030 C 
ATOM      7  C   UNL     1     -10.756  11.046  65.495  0.00  0.00    +0.020 C 
ATOM      8  C   UNL     1      -9.935  11.465  64.307  0.00  0.00    +0.072 C 
ATOM      9  N   UNL     1     -10.478  12.723  63.822  0.00  0.00    -0.271 NA
ATOM     10  C   UNL     1     -11.924  12.645  63.630  0.00  0.00    +0.072 C 
ATOM     11  C   UNL     1     -12.592  12.553  64.988  0.00  0.00    +0.020 C 
ATOM     12  C   UNL     1     -10.265  13.814  64.731  0.00  0.00    +0.100 C 
ATOM     13  O   UNL     1      -9.491  13.271  66.784  0.00  0.00    -0.348 OA
ENDROOT
TORSDOF 0
ENDMDL
MODEL 8
REMARK VINA RESULT:      -4.1      4.766      6.054
REMARK  Name = 
REMARK  0 active torsions:
REMARK  status: ('A' for Active; 'I' for Inactive)
REMARK                            x       y       z     vdW  Elec       q    Type
REMARK                         _______ _______ _______ _____ _____    ______ ____
ROOT
ATOM      1  C   UNL     1      -8.182  11.336  68.162  0.00  0.00    +0.044 C 
ATOM      2  C   UNL     1      -8.379  11.473  66.566  0.00  0.00    +0.163 C 
ATOM      3  S   UNL     1      -9.815  10.179  66.531  0.00  0.00    -0.109 S 
ATOM      4  C   UNL     1     -10.606  11.236  65.269  0.00  0.00    +0.088 C 
ATOM      5  C   UNL     1     -10.322  12.542  65.908  0.00  0.00    +0.118 C 
ATOM      6  C   UNL     1     -10.448  13.601  64.817  0.00  0.00    +0.030 C 
ATOM      7  C   UNL     1     -10.254  14.983  65.388  0.00  0.00    +0.020 C 
ATOM      8  C   UNL     1     -11.076  15.148  66.637  0.00  0.00    +0.072 C 
ATOM      9  N   UNL     1     -12.086  14.103  66.637  0.00  0.00    -0.271 NA
ATOM     10  C   UNL     1     -12.812  14.058  65.370  0.00  0.00    +0.072 C 
ATOM     11  C   UNL     1     -11.878  13.549  64.290  0.00  0.00    +0.020 C 
ATOM     12  C   UNL     1     -11.535  12.790  66.815  0.00  0.00    +0.100 C 
ATOM     13  O   UNL     1      -9.284  12.622  66.693  0.00  0.00    -0.348 OA
ENDROOT
TORSDOF 0
ENDMDL
MODEL 9
REMARK VINA RESULT:      -4.1      3.405      4.481
REMARK  Name = 
REMARK  0 active torsions:
REMARK  status: ('A' for Active; 'I' for Inactive)
REMARK                            x       y       z     vdW  Elec       q    Type
REMARK                         _______ _______ _______ _____ _____    ______ ____
ROOT
ATOM      1  C   UNL     1     -10.858  11.241  66.593  0.00  0.00    +0.044 C 
ATOM      2  C   UNL     1     -10.472  12.348  65.484  0.00  0.00    +0.163 C 
ATOM      3  S   UNL     1     -12.282  13.018  65.377  0.00  0.00    -0.109 S 
ATOM      4  C   UNL     1     -11.551  14.684  65.206  0.00  0.00    +0.088 C 
ATOM      5  C   UNL     1     -10.496  14.535  66.235  0.00  0.00    +0.118 C 
ATOM      6  C   UNL     1      -9.446  15.605  65.945  0.00  0.00    +0.030 C 
ATOM      7  C   UNL     1      -8.361  15.587  66.992  0.00  0.00    +0.020 C 
ATOM      8  C   UNL     1      -8.968  15.544  68.367  0.00  0.00    +0.072 C 
ATOM      9  N   UNL     1     -10.357  15.957  68.246  0.00  0.00    -0.271 NA
ATOM     10  C   UNL     1     -10.481  17.213  67.509  0.00  0.00    +0.072 C 
ATOM     11  C   UNL     1     -10.131  16.962  66.055  0.00  0.00    +0.020 C 
ATOM     12  C   UNL     1     -11.165  15.008  67.533  0.00  0.00    +0.100 C 
ATOM     13  O   UNL     1     -10.060  13.334  66.491  0.00  0.00    -0.348 OA
ENDROOT
TORSDOF 0
ENDMDL
