MODEL 1
REMARK VINA RESULT:      -5.8      0.000      0.000
REMARK  Name = 
REMARK  7 active torsions:
REMARK  status: ('A' for Active; 'I' for Inactive)
REMARK    1  A    between atoms: C_2  and  C_3
REMARK    2  A    between atoms: C_3  and  C_5
REMARK    3  A    between atoms: C_5  and  C_6
REMARK    4  A    between atoms: C_5  and  C_12
REMARK    5  A    between atoms: C_5  and  C_18
REMARK    6  A    between atoms: C_6  and  C_7
REMARK    7  A    between atoms: C_7  and  N_9
REMARK                            x       y       z     vdW  Elec       q    Type
REMARK                         _______ _______ _______ _____ _____    ______ ____
ROOT
ATOM      1  C   UNL     1     -10.518  14.967  67.871  0.00  0.00    +0.090 C 
ENDROOT
BRANCH   1   2
ATOM      2  C   UNL     1     -10.974  14.141  66.776  0.00  0.00    -0.012 A 
ATOM      3  C   UNL     1     -10.167  14.198  65.628  0.00  0.00    -0.004 A 
ATOM      4  C   UNL     1     -10.391  13.452  64.510  0.00  0.00    -0.000 A 
ATOM      5  C   UNL     1     -11.569  12.740  64.438  0.00  0.00    -0.000 A 
ATOM      6  C   UNL     1     -12.604  13.133  65.279  0.00  0.00    -0.000 A 
ATOM      7  C   UNL     1     -12.278  13.993  66.306  0.00  0.00    -0.004 A 
ENDBRANCH   1   2
BRANCH   1   8
ATOM      8  C   UNL     1     -11.548  14.754  68.970  0.00  0.00    -0.012 A 
ATOM      9  C   UNL     1     -11.994  15.834  69.724  0.00  0.00    -0.004 A 
ATOM     10  C   UNL     1     -12.523  15.705  70.980  0.00  0.00    -0.000 A 
ATOM     11  C   UNL     1     -12.854  14.459  71.439  0.00  0.00    -0.000 A 
ATOM     12  C   UNL     1     -12.445  13.362  70.694  0.00  0.00    -0.000 A 
ATOM     13  C   UNL     1     -11.587  13.529  69.614  0.00  0.00    -0.004 A 
ENDBRANCH   1   8
BRANCH   1  14
ATOM     14  C   UNL     1      -9.311  14.279  68.469  0.00  0.00    +0.157 C 
ATOM     15  O   UNL     1      -8.794  13.337  67.862  0.00  0.00    -0.295 OA
BRANCH  14  17
ATOM     16  C   UNL     1      -6.946  14.877  68.659  0.00  0.00    +0.008 C 
ATOM     17  C   UNL     1      -8.289  15.111  69.191  0.00  0.00    +0.065 C 
ENDBRANCH  14  17
ENDBRANCH   1  14
BRANCH   1  18
ATOM     18  C   UNL     1     -10.320  16.335  67.944  0.00  0.00    +0.031 C 
BRANCH  18  19
ATOM     19  C   UNL     1     -10.444  17.293  66.643  0.00  0.00    +0.059 C 
ATOM     20  C   UNL     1      -8.826  17.555  66.520  0.00  0.00    +0.017 C 
BRANCH  19  21
ATOM     21  N   UNL     1     -10.698  18.551  67.556  0.00  0.00    -0.272 NA
ATOM     22  C   UNL     1      -9.798  18.634  68.609  0.00  0.00    +0.090 C 
ATOM     23  C   UNL     1     -10.591  19.710  66.728  0.00  0.00    +0.090 C 
ENDBRANCH  19  21
ENDBRANCH  18  19
ENDBRANCH   1  18
TORSDOF 7
ENDMDL
MODEL 2
REMARK VINA RESULT:      -5.4      1.509      4.162
REMARK  Name = 
REMARK  7 active torsions:
REMARK  status: ('A' for Active; 'I' for Inactive)
REMARK    1  A    between atoms: C_2  and  C_3
REMARK    2  A    between atoms: C_3  and  C_5
REMARK    3  A    between atoms: C_5  and  C_6
REMARK    4  A    between atoms: C_5  and  C_12
REMARK    5  A    between atoms: C_5  and  C_18
REMARK    6  A    between atoms: C_6  and  C_7
REMARK    7  A    between atoms: C_7  and  N_9
REMARK                            x       y       z     vdW  Elec       q    Type
REMARK                         _______ _______ _______ _____ _____    ______ ____
ROOT
ATOM      1  C   UNL     1     -10.160  15.425  67.605  0.00  0.00    +0.090 C 
ENDROOT
BRANCH   1   2
ATOM      2  C   UNL     1     -10.319  16.861  67.578  0.00  0.00    -0.012 A 
ATOM      3  C   UNL     1     -10.261  17.430  66.296  0.00  0.00    -0.004 A 
ATOM      4  C   UNL     1     -10.445  18.757  66.049  0.00  0.00    -0.000 A 
ATOM      5  C   UNL     1     -10.517  19.608  67.132  0.00  0.00    -0.000 A 
ATOM      6  C   UNL     1     -10.001  19.149  68.338  0.00  0.00    -0.000 A 
ATOM      7  C   UNL     1      -9.736  17.799  68.428  0.00  0.00    -0.004 A 
ENDBRANCH   1   2
BRANCH   1   8
ATOM      8  C   UNL     1     -11.228  14.936  68.572  0.00  0.00    -0.012 A 
ATOM      9  C   UNL     1     -11.949  15.850  69.333  0.00  0.00    -0.004 A 
ATOM     10  C   UNL     1     -12.560  15.527  70.515  0.00  0.00    -0.000 A 
ATOM     11  C   UNL     1     -12.679  14.209  70.865  0.00  0.00    -0.000 A 
ATOM     12  C   UNL     1     -11.991  13.270  70.108  0.00  0.00    -0.000 A 
ATOM     13  C   UNL     1     -11.084  13.680  69.139  0.00  0.00    -0.004 A 
ENDBRANCH   1   8
BRANCH   1  14
ATOM     14  C   UNL     1     -10.696  14.897  66.292  0.00  0.00    +0.157 C 
ATOM     15  O   UNL     1      -9.967  14.199  65.583  0.00  0.00    -0.295 OA
BRANCH  14  17
ATOM     16  C   UNL     1     -12.264  13.191  65.509  0.00  0.00    +0.008 C 
ATOM     17  C   UNL     1     -12.133  14.463  66.219  0.00  0.00    +0.065 C 
ENDBRANCH  14  17
ENDBRANCH   1  14
BRANCH   1  18
ATOM     18  C   UNL     1      -9.077  14.647  67.978  0.00  0.00    +0.031 C 
BRANCH  18  19
ATOM     19  C   UNL     1      -7.551  15.095  67.674  0.00  0.00    +0.059 C 
ATOM     20  C   UNL     1      -6.993  13.558  67.509  0.00  0.00    +0.017 C 
BRANCH  19  21
ATOM     21  N   UNL     1      -7.234  15.170  69.215  0.00  0.00    -0.272 NA
ATOM     22  C   UNL     1      -6.504  14.076  69.661  0.00  0.00    +0.090 C 
ATOM     23  C   UNL     1      -6.501  16.374  69.445  0.00  0.00    +0.090 C 
ENDBRANCH  19  21
ENDBRANCH  18  19
ENDBRANCH   1  18
TORSDOF 7
ENDMDL
MODEL 3
REMARK VINA RESULT:      -5.3      1.608      4.857
REMARK  Name = 
REMARK  7 active torsions:
REMARK  status: ('A' for Active; 'I' for Inactive)
REMARK    1  A    between atoms: C_2  and  C_3
REMARK    2  A    between atoms: C_3  and  C_5
REMARK    3  A    between atoms: C_5  and  C_6
REMARK    4  A    between atoms: C_5  and  C_12
REMARK    5  A    between atoms: C_5  and  C_18
REMARK    6  A    between atoms: C_6  and  C_7
REMARK    7  A    between atoms: C_7  and  N_9
REMARK                            x       y       z     vdW  Elec       q    Type
REMARK                         _______ _______ _______ _____ _____    ______ ____
ROOT
ATOM      1  C   UNL     1      -9.899  15.724  68.063  0.00  0.00    +0.090 C 
ENDROOT
BRANCH   1   2
ATOM      2  C   UNL     1     -10.603  15.409  69.284  0.00  0.00    -0.012 A 
ATOM      3  C   UNL     1     -11.388  14.246  69.220  0.00  0.00    -0.004 A 
ATOM      4  C   UNL     1     -12.084  13.745  70.279  0.00  0.00    -0.000 A 
ATOM      5  C   UNL     1     -12.161  14.515  71.420  0.00  0.00    -0.000 A 
ATOM      6  C   UNL     1     -11.898  15.874  71.290  0.00  0.00    -0.000 A 
ATOM      7  C   UNL     1     -11.302  16.283  70.116  0.00  0.00    -0.004 A 
ENDBRANCH   1   2
BRANCH   1   8
ATOM      8  C   UNL     1     -10.226  17.186  67.795  0.00  0.00    -0.012 A 
ATOM      9  C   UNL     1     -10.524  17.606  66.503  0.00  0.00    -0.004 A 
ATOM     10  C   UNL     1     -10.371  18.900  66.081  0.00  0.00    -0.000 A 
ATOM     11  C   UNL     1     -10.143  19.881  67.007  0.00  0.00    -0.000 A 
ATOM     12  C   UNL     1      -9.868  19.492  68.312  0.00  0.00    -0.000 A 
ATOM     13  C   UNL     1      -9.668  18.151  68.616  0.00  0.00    -0.004 A 
ENDBRANCH   1   8
BRANCH   1  14
ATOM     14  C   UNL     1      -8.429  15.817  68.413  0.00  0.00    +0.157 C 
ATOM     15  O   UNL     1      -8.026  15.295  69.455  0.00  0.00    -0.295 OA
BRANCH  14  17
ATOM     16  C   UNL     1      -6.482  16.847  67.350  0.00  0.00    +0.008 C 
ATOM     17  C   UNL     1      -7.416  15.722  67.307  0.00  0.00    +0.065 C 
ENDBRANCH  14  17
ENDBRANCH   1  14
BRANCH   1  18
ATOM     18  C   UNL     1     -10.011  15.183  66.794  0.00  0.00    +0.031 C 
BRANCH  18  19
ATOM     19  C   UNL     1     -10.810  13.802  66.516  0.00  0.00    +0.059 C 
ATOM     20  C   UNL     1      -9.456  12.871  66.489  0.00  0.00    +0.017 C 
BRANCH  19  21
ATOM     21  N   UNL     1     -10.797  14.071  64.964  0.00  0.00    -0.272 NA
ATOM     22  C   UNL     1     -10.556  12.919  64.227  0.00  0.00    +0.090 C 
ATOM     23  C   UNL     1     -12.068  14.620  64.613  0.00  0.00    +0.090 C 
ENDBRANCH  19  21
ENDBRANCH  18  19
ENDBRANCH   1  18
TORSDOF 7
ENDMDL
MODEL 4
REMARK VINA RESULT:      -5.2      1.538      1.910
REMARK  Name = 
REMARK  7 active torsions:
REMARK  status: ('A' for Active; 'I' for Inactive)
REMARK    1  A    between atoms: C_2  and  C_3
REMARK    2  A    between atoms: C_3  and  C_5
REMARK    3  A    between atoms: C_5  and  C_6
REMARK    4  A    between atoms: C_5  and  C_12
REMARK    5  A    between atoms: C_5  and  C_18
REMARK    6  A    between atoms: C_6  and  C_7
REMARK    7  A    between atoms: C_7  and  N_9
REMARK                            x       y       z     vdW  Elec       q    Type
REMARK                         _______ _______ _______ _____ _____    ______ ____
ROOT
ATOM      1  C   UNL     1     -10.368  13.276  67.239  0.00  0.00    +0.090 C 
ENDROOT
BRANCH   1   2
ATOM      2  C   UNL     1     -10.981  12.767  66.035  0.00  0.00    -0.012 A 
ATOM      3  C   UNL     1     -10.197  12.905  64.878  0.00  0.00    -0.004 A 
ATOM      4  C   UNL     1     -10.568  12.439  63.653  0.00  0.00    -0.000 A 
ATOM      5  C   UNL     1     -11.855  11.964  63.509  0.00  0.00    -0.000 A 
ATOM      6  C   UNL     1     -12.789  12.358  64.460  0.00  0.00    -0.000 A 
ATOM      7  C   UNL     1     -12.299  12.936  65.612  0.00  0.00    -0.004 A 
ENDBRANCH   1   2
BRANCH   1   8
ATOM      8  C   UNL     1     -11.312  12.863  68.358  0.00  0.00    -0.012 A 
ATOM      9  C   UNL     1     -11.794  13.816  69.250  0.00  0.00    -0.004 A 
ATOM     10  C   UNL     1     -12.237  13.509  70.509  0.00  0.00    -0.000 A 
ATOM     11  C   UNL     1     -12.445  12.199  70.841  0.00  0.00    -0.000 A 
ATOM     12  C   UNL     1     -11.998  11.225  69.958  0.00  0.00    -0.000 A 
ATOM     13  C   UNL     1     -11.220  11.577  68.862  0.00  0.00    -0.004 A 
ENDBRANCH   1   8
BRANCH   1  14
ATOM     14  C   UNL     1      -9.172  12.397  67.531  0.00  0.00    +0.157 C 
ATOM     15  O   UNL     1      -8.908  11.467  66.765  0.00  0.00    -0.295 OA
BRANCH  14  17
ATOM     16  C   UNL     1      -7.108  12.040  68.795  0.00  0.00    +0.008 C 
ATOM     17  C   UNL     1      -7.931  13.028  68.097  0.00  0.00    +0.065 C 
ENDBRANCH  14  17
ENDBRANCH   1  14
BRANCH   1  18
ATOM     18  C   UNL     1     -10.056  14.573  67.611  0.00  0.00    +0.031 C 
BRANCH  18  19
ATOM     19  C   UNL     1     -10.415  15.846  66.677  0.00  0.00    +0.059 C 
ATOM     20  C   UNL     1      -8.857  16.131  66.239  0.00  0.00    +0.017 C 
BRANCH  19  21
ATOM     21  N   UNL     1     -10.366  16.812  67.920  0.00  0.00    -0.272 NA
ATOM     22  C   UNL     1      -9.198  16.670  68.657  0.00  0.00    +0.090 C 
ATOM     23  C   UNL     1     -10.476  18.149  67.430  0.00  0.00    +0.090 C 
ENDBRANCH  19  21
ENDBRANCH  18  19
ENDBRANCH   1  18
TORSDOF 7
ENDMDL
MODEL 5
REMARK VINA RESULT:      -5.2      1.462      4.847
REMARK  Name = 
REMARK  7 active torsions:
REMARK  status: ('A' for Active; 'I' for Inactive)
REMARK    1  A    between atoms: C_2  and  C_3
REMARK    2  A    between atoms: C_3  and  C_5
REMARK    3  A    between atoms: C_5  and  C_6
REMARK    4  A    between atoms: C_5  and  C_12
REMARK    5  A    between atoms: C_5  and  C_18
REMARK    6  A    between atoms: C_6  and  C_7
REMARK    7  A    between atoms: C_7  and  N_9
REMARK                            x       y       z     vdW  Elec       q    Type
REMARK                         _______ _______ _______ _____ _____    ______ ____
ROOT
ATOM      1  C   UNL     1     -10.528  15.969  68.308  0.00  0.00    +0.090 C 
ENDROOT
BRANCH   1   2
ATOM      2  C   UNL     1     -10.192  17.282  67.809  0.00  0.00    -0.012 A 
ATOM      3  C   UNL     1      -9.986  18.250  68.806  0.00  0.00    -0.004 A 
ATOM      4  C   UNL     1      -9.606  19.533  68.548  0.00  0.00    -0.000 A 
ATOM      5  C   UNL     1      -9.595  19.947  67.232  0.00  0.00    -0.000 A 
ATOM      6  C   UNL     1     -10.339  19.203  66.324  0.00  0.00    -0.000 A 
ATOM      7  C   UNL     1     -10.778  17.966  66.744  0.00  0.00    -0.004 A 
ENDBRANCH   1   2
BRANCH   1   8
ATOM      8  C   UNL     1     -10.863  15.158  67.066  0.00  0.00    -0.012 A 
ATOM      9  C   UNL     1     -10.324  15.516  65.835  0.00  0.00    -0.004 A 
ATOM     10  C   UNL     1     -10.896  15.178  64.638  0.00  0.00    -0.000 A 
ATOM     11  C   UNL     1     -11.906  14.255  64.619  0.00  0.00    -0.000 A 
ATOM     12  C   UNL     1     -12.447  13.858  65.834  0.00  0.00    -0.000 A 
ATOM     13  C   UNL     1     -12.083  14.507  67.008  0.00  0.00    -0.004 A 
ENDBRANCH   1   8
BRANCH   1  14
ATOM     14  C   UNL     1      -9.233  15.316  68.739  0.00  0.00    +0.157 C 
ATOM     15  O   UNL     1      -9.086  14.104  68.568  0.00  0.00    -0.295 OA
BRANCH  14  17
ATOM     16  C   UNL     1      -7.072  15.394  67.596  0.00  0.00    +0.008 C 
ATOM     17  C   UNL     1      -7.946  16.071  68.555  0.00  0.00    +0.065 C 
ENDBRANCH  14  17
ENDBRANCH   1  14
BRANCH   1  18
ATOM     18  C   UNL     1     -11.529  15.565  69.176  0.00  0.00    +0.031 C 
BRANCH  18  19
ATOM     19  C   UNL     1     -11.210  15.056  70.679  0.00  0.00    +0.059 C 
ATOM     20  C   UNL     1     -12.116  13.692  70.551  0.00  0.00    +0.017 C 
BRANCH  19  21
ATOM     21  N   UNL     1     -12.389  15.926  71.257  0.00  0.00    -0.272 NA
ATOM     22  C   UNL     1     -13.608  15.263  71.216  0.00  0.00    +0.090 C 
ATOM     23  C   UNL     1     -12.057  16.257  72.606  0.00  0.00    +0.090 C 
ENDBRANCH  19  21
ENDBRANCH  18  19
ENDBRANCH   1  18
TORSDOF 7
ENDMDL
MODEL 6
REMARK VINA RESULT:      -5.1      1.723      4.165
REMARK  Name = 
REMARK  7 active torsions:
REMARK  status: ('A' for Active; 'I' for Inactive)
REMARK    1  A    between atoms: C_2  and  C_3
REMARK    2  A    between atoms: C_3  and  C_5
REMARK    3  A    between atoms: C_5  and  C_6
REMARK    4  A    between atoms: C_5  and  C_12
REMARK    5  A    between atoms: C_5  and  C_18
REMARK    6  A    between atoms: C_6  and  C_7
REMARK    7  A    between atoms: C_7  and  N_9
REMARK                            x       y       z     vdW  Elec       q    Type
REMARK                         _______ _______ _______ _____ _____    ______ ____
ROOT
ATOM      1  C   UNL     1      -9.941  15.772  67.797  0.00  0.00    +0.090 C 
ENDROOT
BRANCH   1   2
ATOM      2  C   UNL     1     -10.741  15.180  66.750  0.00  0.00    -0.012 A 
ATOM      3  C   UNL     1     -11.196  13.882  67.029  0.00  0.00    -0.004 A 
ATOM      4  C   UNL     1     -12.011  13.172  66.197  0.00  0.00    -0.000 A 
ATOM      5  C   UNL     1     -12.254  13.688  64.942  0.00  0.00    -0.000 A 
ATOM      6  C   UNL     1     -11.365  14.642  64.462  0.00  0.00    -0.000 A 
ATOM      7  C   UNL     1     -10.500  15.203  65.377  0.00  0.00    -0.004 A 
ENDBRANCH   1   2
BRANCH   1   8
ATOM      8  C   UNL     1     -10.227  17.264  67.705  0.00  0.00    -0.012 A 
ATOM      9  C   UNL     1     -10.587  17.829  66.487  0.00  0.00    -0.004 A 
ATOM     10  C   UNL     1     -10.410  19.155  66.193  0.00  0.00    -0.000 A 
ATOM     11  C   UNL     1     -10.088  20.023  67.200  0.00  0.00    -0.000 A 
ATOM     12  C   UNL     1      -9.748  19.489  68.436  0.00  0.00    -0.000 A 
ATOM     13  C   UNL     1      -9.583  18.118  68.584  0.00  0.00    -0.004 A 
ENDBRANCH   1   8
BRANCH   1  14
ATOM     14  C   UNL     1     -10.610  15.430  69.110  0.00  0.00    +0.157 C 
ATOM     15  O   UNL     1      -9.922  15.345  70.131  0.00  0.00    -0.295 OA
BRANCH  14  17
ATOM     16  C   UNL     1     -12.402  15.672  70.757  0.00  0.00    +0.008 C 
ATOM     17  C   UNL     1     -11.972  15.996  69.397  0.00  0.00    +0.065 C 
ENDBRANCH  14  17
ENDBRANCH   1  14
BRANCH   1  18
ATOM     18  C   UNL     1      -8.570  15.769  67.993  0.00  0.00    +0.031 C 
BRANCH  18  19
ATOM     19  C   UNL     1      -7.588  14.767  67.185  0.00  0.00    +0.059 C 
ATOM     20  C   UNL     1      -7.060  13.987  68.531  0.00  0.00    +0.017 C 
BRANCH  19  21
ATOM     21  N   UNL     1      -6.430  15.834  67.206  0.00  0.00    -0.272 NA
ATOM     22  C   UNL     1      -6.720  16.949  66.432  0.00  0.00    +0.090 C 
ATOM     23  C   UNL     1      -6.229  16.222  68.566  0.00  0.00    +0.090 C 
ENDBRANCH  19  21
ENDBRANCH  18  19
ENDBRANCH   1  18
TORSDOF 7
ENDMDL
MODEL 7
REMARK VINA RESULT:      -5.1      1.796      5.043
REMARK  Name = 
REMARK  7 active torsions:
REMARK  status: ('A' for Active; 'I' for Inactive)
REMARK    1  A    between atoms: C_2  and  C_3
REMARK    2  A    between atoms: C_3  and  C_5
REMARK    3  A    between atoms: C_5  and  C_6
REMARK    4  A    between atoms: C_5  and  C_12
REMARK    5  A    between atoms: C_5  and  C_18
REMARK    6  A    between atoms: C_6  and  C_7
REMARK    7  A    between atoms: C_7  and  N_9
REMARK                            x       y       z     vdW  Elec       q    Type
REMARK                         _______ _______ _______ _____ _____    ______ ____
ROOT
ATOM      1  C   UNL     1     -10.327  15.039  67.856  0.00  0.00    +0.090 C 
ENDROOT
BRANCH   1   2
ATOM      2  C   UNL     1     -11.120  14.726  69.022  0.00  0.00    -0.012 A 
ATOM      3  C   UNL     1     -10.778  15.454  70.173  0.00  0.00    -0.004 A 
ATOM      4  C   UNL     1     -11.441  15.349  71.359  0.00  0.00    -0.000 A 
ATOM      5  C   UNL     1     -12.382  14.349  71.483  0.00  0.00    -0.000 A 
ATOM      6  C   UNL     1     -12.307  13.289  70.586  0.00  0.00    -0.000 A 
ATOM      7  C   UNL     1     -11.502  13.466  69.481  0.00  0.00    -0.004 A 
ENDBRANCH   1   2
BRANCH   1   8
ATOM      8  C   UNL     1     -10.892  14.153  66.756  0.00  0.00    -0.012 A 
ATOM      9  C   UNL     1     -10.049  13.643  65.773  0.00  0.00    -0.004 A 
ATOM     10  C   UNL     1     -10.489  13.255  64.536  0.00  0.00    -0.000 A 
ATOM     11  C   UNL     1     -11.834  13.133  64.315  0.00  0.00    -0.000 A 
ATOM     12  C   UNL     1     -12.700  13.610  65.290  0.00  0.00    -0.000 A 
ATOM     13  C   UNL     1     -12.209  14.334  66.369  0.00  0.00    -0.004 A 
ENDBRANCH   1   8
BRANCH   1  14
ATOM     14  C   UNL     1     -10.765  16.406  67.379  0.00  0.00    +0.157 C 
ATOM     15  O   UNL     1     -11.262  17.194  68.188  0.00  0.00    -0.295 OA
BRANCH  14  17
ATOM     16  C   UNL     1     -10.164  18.556  66.379  0.00  0.00    +0.008 C 
ATOM     17  C   UNL     1      -9.934  17.112  66.345  0.00  0.00    +0.065 C 
ENDBRANCH  14  17
ENDBRANCH   1  14
BRANCH   1  18
ATOM     18  C   UNL     1      -8.966  14.916  67.635  0.00  0.00    +0.031 C 
BRANCH  18  19
ATOM     19  C   UNL     1      -7.927  14.577  68.830  0.00  0.00    +0.059 C 
ATOM     20  C   UNL     1      -7.406  16.127  68.993  0.00  0.00    +0.017 C 
BRANCH  19  21
ATOM     21  N   UNL     1      -6.810  14.187  67.790  0.00  0.00    -0.272 NA
ATOM     22  C   UNL     1      -5.534  14.490  68.243  0.00  0.00    +0.090 C 
ATOM     23  C   UNL     1      -6.923  12.784  67.546  0.00  0.00    +0.090 C 
ENDBRANCH  19  21
ENDBRANCH  18  19
ENDBRANCH   1  18
TORSDOF 7
ENDMDL
MODEL 8
REMARK VINA RESULT:      -5.0      2.265      3.347
REMARK  Name = 
REMARK  7 active torsions:
REMARK  status: ('A' for Active; 'I' for Inactive)
REMARK    1  A    between atoms: C_2  and  C_3
REMARK    2  A    between atoms: C_3  and  C_5
REMARK    3  A    between atoms: C_5  and  C_6
REMARK    4  A    between atoms: C_5  and  C_12
REMARK    5  A    between atoms: C_5  and  C_18
REMARK    6  A    between atoms: C_6  and  C_7
REMARK    7  A    between atoms: C_7  and  N_9
REMARK                            x       y       z     vdW  Elec       q    Type
REMARK                         _______ _______ _______ _____ _____    ______ ____
ROOT
ATOM      1  C   UNL     1     -10.854  12.688  68.125  0.00  0.00    +0.090 C 
ENDROOT
BRANCH   1   2
ATOM      2  C   UNL     1     -11.488  12.675  66.827  0.00  0.00    -0.012 A 
ATOM      3  C   UNL     1     -10.786  11.961  65.842  0.00  0.00    -0.004 A 
ATOM      4  C   UNL     1     -11.242  11.780  64.571  0.00  0.00    -0.000 A 
ATOM      5  C   UNL     1     -12.364  12.482  64.184  0.00  0.00    -0.000 A 
ATOM      6  C   UNL     1     -12.706  13.601  64.936  0.00  0.00    -0.000 A 
ATOM      7  C   UNL     1     -12.084  13.743  66.158  0.00  0.00    -0.004 A 
ENDBRANCH   1   2
BRANCH   1   8
ATOM      8  C   UNL     1     -11.695  13.645  68.956  0.00  0.00    -0.012 A 
ATOM      9  C   UNL     1     -11.547  15.019  68.798  0.00  0.00    -0.004 A 
ATOM     10  C   UNL     1     -11.878  15.925  69.769  0.00  0.00    -0.000 A 
ATOM     11  C   UNL     1     -12.602  15.508  70.853  0.00  0.00    -0.000 A 
ATOM     12  C   UNL     1     -12.789  14.142  71.023  0.00  0.00    -0.000 A 
ATOM     13  C   UNL     1     -12.118  13.237  70.210  0.00  0.00    -0.004 A 
ENDBRANCH   1   8
BRANCH   1  14
ATOM     14  C   UNL     1     -11.177  11.367  68.788  0.00  0.00    +0.157 C 
ATOM     15  O   UNL     1     -12.166  10.733  68.412  0.00  0.00    -0.295 OA
BRANCH  14  17
ATOM     16  C   UNL     1     -10.386   9.686  70.378  0.00  0.00    +0.008 C 
ATOM     17  C   UNL     1     -10.046  10.462  69.186  0.00  0.00    +0.065 C 
ENDBRANCH  14  17
ENDBRANCH   1  14
BRANCH   1  18
ATOM     18  C   UNL     1      -9.572  13.059  68.496  0.00  0.00    +0.031 C 
BRANCH  18  19
ATOM     19  C   UNL     1      -8.575  13.836  67.484  0.00  0.00    +0.059 C 
ATOM     20  C   UNL     1      -7.490  12.604  67.398  0.00  0.00    +0.017 C 
BRANCH  19  21
ATOM     21  N   UNL     1      -7.852  14.544  68.691  0.00  0.00    -0.272 NA
ATOM     22  C   UNL     1      -6.509  14.205  68.778  0.00  0.00    +0.090 C 
ATOM     23  C   UNL     1      -7.991  15.954  68.507  0.00  0.00    +0.090 C 
ENDBRANCH  19  21
ENDBRANCH  18  19
ENDBRANCH   1  18
TORSDOF 7
ENDMDL
MODEL 9
REMARK VINA RESULT:      -5.0      2.101      3.306
REMARK  Name = 
REMARK  7 active torsions:
REMARK  status: ('A' for Active; 'I' for Inactive)
REMARK    1  A    between atoms: C_2  and  C_3
REMARK    2  A    between atoms: C_3  and  C_5
REMARK    3  A    between atoms: C_5  and  C_6
REMARK    4  A    between atoms: C_5  and  C_12
REMARK    5  A    between atoms: C_5  and  C_18
REMARK    6  A    between atoms: C_6  and  C_7
REMARK    7  A    between atoms: C_7  and  N_9
REMARK                            x       y       z     vdW  Elec       q    Type
REMARK                         _______ _______ _______ _____ _____    ______ ____
ROOT
ATOM      1  C   UNL     1     -10.400  13.345  68.117  0.00  0.00    +0.090 C 
ENDROOT
BRANCH   1   2
ATOM      2  C   UNL     1     -10.951  13.357  66.782  0.00  0.00    -0.012 A 
ATOM      3  C   UNL     1     -11.019  14.630  66.192  0.00  0.00    -0.004 A 
ATOM      4  C   UNL     1     -11.453  14.850  64.919  0.00  0.00    -0.000 A 
ATOM      5  C   UNL     1     -12.018  13.790  64.240  0.00  0.00    -0.000 A 
ATOM      6  C   UNL     1     -12.478  12.720  64.999  0.00  0.00    -0.000 A 
ATOM      7  C   UNL     1     -12.071  12.671  66.315  0.00  0.00    -0.004 A 
ENDBRANCH   1   2
BRANCH   1   8
ATOM      8  C   UNL     1     -10.726  11.960  68.657  0.00  0.00    -0.012 A 
ATOM      9  C   UNL     1     -11.751  11.797  69.583  0.00  0.00    -0.004 A 
ATOM     10  C   UNL     1     -11.817  10.740  70.450  0.00  0.00    -0.000 A 
ATOM     11  C   UNL     1     -10.987   9.670  70.262  0.00  0.00    -0.000 A 
ATOM     12  C   UNL     1      -9.969   9.793  69.325  0.00  0.00    -0.000 A 
ATOM     13  C   UNL     1      -9.710  11.021  68.730  0.00  0.00    -0.004 A 
ENDBRANCH   1   8
BRANCH   1  14
ATOM     14  C   UNL     1      -8.896  13.252  67.974  0.00  0.00    +0.157 C 
ATOM     15  O   UNL     1      -8.418  12.846  66.912  0.00  0.00    -0.295 OA
BRANCH  14  17
ATOM     16  C   UNL     1      -7.449  15.186  67.587  0.00  0.00    +0.008 C 
ATOM     17  C   UNL     1      -8.043  14.317  68.603  0.00  0.00    +0.065 C 
ENDBRANCH  14  17
ENDBRANCH   1  14
BRANCH   1  18
ATOM     18  C   UNL     1     -10.684  14.139  69.216  0.00  0.00    +0.031 C 
BRANCH  18  19
ATOM     19  C   UNL     1     -11.884  15.226  69.203  0.00  0.00    +0.059 C 
ATOM     20  C   UNL     1     -10.886  16.523  69.355  0.00  0.00    +0.017 C 
BRANCH  19  21
ATOM     21  N   UNL     1     -12.095  15.058  70.755  0.00  0.00    -0.272 NA
ATOM     22  C   UNL     1     -11.685  16.174  71.470  0.00  0.00    +0.090 C 
ATOM     23  C   UNL     1     -13.485  14.817  70.976  0.00  0.00    +0.090 C 
ENDBRANCH  19  21
ENDBRANCH  18  19
ENDBRANCH   1  18
TORSDOF 7
ENDMDL
