MODEL 1
REMARK VINA RESULT:      -6.6      0.000      0.000
REMARK  Name = 
REMARK  2 active torsions:
REMARK  status: ('A' for Active; 'I' for Inactive)
REMARK    1  A    between atoms: N_5  and  S_6
REMARK    2  A    between atoms: S_6  and  C_9
REMARK                            x       y       z     vdW  Elec       q    Type
REMARK                         _______ _______ _______ _____ _____    ______ ____
ROOT
ATOM      1  S   UNL     1     -11.368  14.983  68.677  0.00  0.00    +0.094 S 
ATOM      2  O   UNL     1     -11.863  16.395  68.700  0.00  0.00    -0.148 OA
ATOM      3  O   UNL     1      -9.919  14.949  69.106  0.00  0.00    -0.148 OA
ENDROOT
BRANCH   1   9
ATOM      4  C   UNL     1     -12.537  15.423  74.533  0.00  0.00    +0.075 C 
ATOM      5  C   UNL     1     -12.799  15.267  73.090  0.00  0.00    +0.156 A 
ATOM      6  O   UNL     1     -13.181  16.273  72.325  0.00  0.00    -0.356 OA
ATOM      7  N   UNL     1     -13.173  15.903  71.068  0.00  0.00    -0.059 NA
ATOM      8  C   UNL     1     -12.844  14.591  70.989  0.00  0.00    +0.213 A 
ATOM      9  N   UNL     1     -12.245  14.016  69.821  0.00  0.00    -0.074 NA
ATOM     10  C   UNL     1     -12.685  14.139  72.294  0.00  0.00    +0.077 A 
ENDBRANCH   1   9
BRANCH   1  11
ATOM     11  C   UNL     1     -11.475  14.283  67.089  0.00  0.00    +0.127 A 
ATOM     12  C   UNL     1     -10.852  14.922  66.032  0.00  0.00    +0.022 A 
ATOM     13  C   UNL     1     -10.978  14.380  64.767  0.00  0.00    +0.019 A 
ATOM     14  C   UNL     1     -11.754  13.251  64.542  0.00  0.00    +0.089 A 
ATOM     15  N   UNL     1     -12.496  13.069  63.332  0.00  0.00    -0.128 NA
ATOM     16  C   UNL     1     -11.980  12.430  65.639  0.00  0.00    +0.019 A 
ATOM     17  C   UNL     1     -11.737  12.931  66.898  0.00  0.00    +0.022 A 
ENDBRANCH   1  11
TORSDOF 2
ENDMDL
MODEL 2
REMARK VINA RESULT:      -6.6      3.692      5.394
REMARK  Name = 
REMARK  2 active torsions:
REMARK  status: ('A' for Active; 'I' for Inactive)
REMARK    1  A    between atoms: N_5  and  S_6
REMARK    2  A    between atoms: S_6  and  C_9
REMARK                            x       y       z     vdW  Elec       q    Type
REMARK                         _______ _______ _______ _____ _____    ______ ____
ROOT
ATOM      1  S   UNL     1     -10.681  16.450  68.143  0.00  0.00    +0.094 S 
ATOM      2  O   UNL     1      -9.305  16.187  68.669  0.00  0.00    -0.148 OA
ATOM      3  O   UNL     1     -11.689  16.261  69.252  0.00  0.00    -0.148 OA
ENDROOT
BRANCH   1   9
ATOM      4  C   UNL     1      -6.781  20.766  66.719  0.00  0.00    +0.075 C 
ATOM      5  C   UNL     1      -7.927  19.848  66.570  0.00  0.00    +0.156 A 
ATOM      6  O   UNL     1      -7.851  18.722  65.886  0.00  0.00    -0.356 OA
ATOM      7  N   UNL     1      -8.945  18.022  66.060  0.00  0.00    -0.059 NA
ATOM      8  C   UNL     1      -9.811  18.729  66.826  0.00  0.00    +0.213 A 
ATOM      9  N   UNL     1     -10.824  18.100  67.622  0.00  0.00    -0.074 NA
ATOM     10  C   UNL     1      -9.206  19.951  67.092  0.00  0.00    +0.077 A 
ENDBRANCH   1   9
BRANCH   1  11
ATOM     11  C   UNL     1     -11.097  15.371  66.846  0.00  0.00    +0.127 A 
ATOM     12  C   UNL     1     -10.167  15.129  65.850  0.00  0.00    +0.022 A 
ATOM     13  C   UNL     1     -10.523  14.301  64.803  0.00  0.00    +0.019 A 
ATOM     14  C   UNL     1     -11.799  13.762  64.713  0.00  0.00    +0.089 A 
ATOM     15  N   UNL     1     -12.448  13.553  63.454  0.00  0.00    -0.128 NA
ATOM     16  C   UNL     1     -12.516  13.672  65.899  0.00  0.00    +0.019 A 
ATOM     17  C   UNL     1     -12.088  14.405  66.983  0.00  0.00    +0.022 A 
ENDBRANCH   1  11
TORSDOF 2
ENDMDL
MODEL 3
REMARK VINA RESULT:      -6.6      3.583      6.402
REMARK  Name = 
REMARK  2 active torsions:
REMARK  status: ('A' for Active; 'I' for Inactive)
REMARK    1  A    between atoms: N_5  and  S_6
REMARK    2  A    between atoms: S_6  and  C_9
REMARK                            x       y       z     vdW  Elec       q    Type
REMARK                         _______ _______ _______ _____ _____    ______ ____
ROOT
ATOM      1  S   UNL     1     -10.790  15.866  68.197  0.00  0.00    +0.094 S 
ATOM      2  O   UNL     1     -11.254  15.212  66.933  0.00  0.00    -0.148 OA
ATOM      3  O   UNL     1      -9.310  15.620  68.377  0.00  0.00    -0.148 OA
ENDROOT
BRANCH   1   9
ATOM      4  C   UNL     1      -7.188  20.468  66.892  0.00  0.00    +0.075 C 
ATOM      5  C   UNL     1      -8.366  19.583  66.815  0.00  0.00    +0.156 A 
ATOM      6  O   UNL     1      -8.486  18.638  65.902  0.00  0.00    -0.356 OA
ATOM      7  N   UNL     1      -9.532  17.895  66.167  0.00  0.00    -0.059 NA
ATOM      8  C   UNL     1     -10.176  18.396  67.249  0.00  0.00    +0.213 A 
ATOM      9  N   UNL     1     -10.997  17.587  68.099  0.00  0.00    -0.074 NA
ATOM     10  C   UNL     1      -9.486  19.541  67.629  0.00  0.00    +0.077 A 
ENDBRANCH   1   9
BRANCH   1  11
ATOM     11  C   UNL     1     -11.614  15.238  69.592  0.00  0.00    +0.127 A 
ATOM     12  C   UNL     1     -11.742  13.868  69.736  0.00  0.00    +0.022 A 
ATOM     13  C   UNL     1     -12.434  13.380  70.827  0.00  0.00    +0.019 A 
ATOM     14  C   UNL     1     -13.038  14.237  71.738  0.00  0.00    +0.089 A 
ATOM     15  N   UNL     1     -14.271  13.907  72.386  0.00  0.00    -0.128 NA
ATOM     16  C   UNL     1     -12.531  15.528  71.799  0.00  0.00    +0.019 A 
ATOM     17  C   UNL     1     -11.737  15.973  70.766  0.00  0.00    +0.022 A 
ENDBRANCH   1  11
TORSDOF 2
ENDMDL
MODEL 4
REMARK VINA RESULT:      -6.6      5.006      7.624
REMARK  Name = 
REMARK  2 active torsions:
REMARK  status: ('A' for Active; 'I' for Inactive)
REMARK    1  A    between atoms: N_5  and  S_6
REMARK    2  A    between atoms: S_6  and  C_9
REMARK                            x       y       z     vdW  Elec       q    Type
REMARK                         _______ _______ _______ _____ _____    ______ ____
ROOT
ATOM      1  S   UNL     1      -9.816  18.279  66.629  0.00  0.00    +0.094 S 
ATOM      2  O   UNL     1     -10.372  19.234  65.620  0.00  0.00    -0.148 OA
ATOM      3  O   UNL     1     -10.880  17.948  67.650  0.00  0.00    -0.148 OA
ENDROOT
BRANCH   1   9
ATOM      4  C   UNL     1     -12.856  13.475  64.746  0.00  0.00    +0.075 C 
ATOM      5  C   UNL     1     -11.931  14.624  64.688  0.00  0.00    +0.156 A 
ATOM      6  O   UNL     1     -12.279  15.790  64.179  0.00  0.00    -0.356 OA
ATOM      7  N   UNL     1     -11.338  16.674  64.410  0.00  0.00    -0.059 NA
ATOM      8  C   UNL     1     -10.297  16.067  65.030  0.00  0.00    +0.213 A 
ATOM      9  N   UNL     1      -9.380  16.781  65.868  0.00  0.00    -0.074 NA
ATOM     10  C   UNL     1     -10.624  14.721  65.139  0.00  0.00    +0.077 A 
ENDBRANCH   1   9
BRANCH   1  11
ATOM     11  C   UNL     1      -8.450  18.946  67.472  0.00  0.00    +0.127 A 
ATOM     12  C   UNL     1      -7.747  18.142  68.352  0.00  0.00    +0.022 A 
ATOM     13  C   UNL     1      -6.689  18.694  69.048  0.00  0.00    +0.019 A 
ATOM     14  C   UNL     1      -6.362  20.037  68.916  0.00  0.00    +0.089 A 
ATOM     15  N   UNL     1      -5.857  20.806  70.013  0.00  0.00    -0.128 NA
ATOM     16  C   UNL     1      -6.786  20.662  67.751  0.00  0.00    +0.019 A 
ATOM     17  C   UNL     1      -7.756  20.050  66.990  0.00  0.00    +0.022 A 
ENDBRANCH   1  11
TORSDOF 2
ENDMDL
MODEL 5
REMARK VINA RESULT:      -6.5      1.278      1.328
REMARK  Name = 
REMARK  2 active torsions:
REMARK  status: ('A' for Active; 'I' for Inactive)
REMARK    1  A    between atoms: N_5  and  S_6
REMARK    2  A    between atoms: S_6  and  C_9
REMARK                            x       y       z     vdW  Elec       q    Type
REMARK                         _______ _______ _______ _____ _____    ______ ____
ROOT
ATOM      1  S   UNL     1     -10.351  16.038  68.257  0.00  0.00    +0.094 S 
ATOM      2  O   UNL     1     -11.185  17.260  68.487  0.00  0.00    -0.148 OA
ATOM      3  O   UNL     1      -8.920  16.447  67.993  0.00  0.00    -0.148 OA
ENDROOT
BRANCH   1   9
ATOM      4  C   UNL     1     -12.989  16.316  73.625  0.00  0.00    +0.075 C 
ATOM      5  C   UNL     1     -12.573  15.748  72.329  0.00  0.00    +0.156 A 
ATOM      6  O   UNL     1     -13.364  15.736  71.272  0.00  0.00    -0.356 OA
ATOM      7  N   UNL     1     -12.692  15.340  70.219  0.00  0.00    -0.059 NA
ATOM      8  C   UNL     1     -11.432  15.007  70.591  0.00  0.00    +0.213 A 
ATOM      9  N   UNL     1     -10.326  15.046  69.681  0.00  0.00    -0.074 NA
ATOM     10  C   UNL     1     -11.362  15.180  71.968  0.00  0.00    +0.077 A 
ENDBRANCH   1   9
BRANCH   1  11
ATOM     11  C   UNL     1     -10.909  15.119  66.891  0.00  0.00    +0.127 A 
ATOM     12  C   UNL     1     -10.030  14.860  65.854  0.00  0.00    +0.022 A 
ATOM     13  C   UNL     1     -10.495  14.164  64.755  0.00  0.00    +0.019 A 
ATOM     14  C   UNL     1     -11.825  13.775  64.658  0.00  0.00    +0.089 A 
ATOM     15  N   UNL     1     -12.516  13.742  63.405  0.00  0.00    -0.128 NA
ATOM     16  C   UNL     1     -12.523  13.667  65.853  0.00  0.00    +0.019 A 
ATOM     17  C   UNL     1     -11.997  14.258  66.979  0.00  0.00    +0.022 A 
ENDBRANCH   1  11
TORSDOF 2
ENDMDL
MODEL 6
REMARK VINA RESULT:      -6.5      4.288      5.598
REMARK  Name = 
REMARK  2 active torsions:
REMARK  status: ('A' for Active; 'I' for Inactive)
REMARK    1  A    between atoms: N_5  and  S_6
REMARK    2  A    between atoms: S_6  and  C_9
REMARK                            x       y       z     vdW  Elec       q    Type
REMARK                         _______ _______ _______ _____ _____    ______ ____
ROOT
ATOM      1  S   UNL     1     -10.359  16.554  65.835  0.00  0.00    +0.094 S 
ATOM      2  O   UNL     1     -11.035  17.046  64.593  0.00  0.00    -0.148 OA
ATOM      3  O   UNL     1      -8.887  16.348  65.558  0.00  0.00    -0.148 OA
ENDROOT
BRANCH   1   9
ATOM      4  C   UNL     1      -6.492  20.388  68.327  0.00  0.00    +0.075 C 
ATOM      5  C   UNL     1      -7.721  19.919  67.659  0.00  0.00    +0.156 A 
ATOM      6  O   UNL     1      -7.901  20.011  66.355  0.00  0.00    -0.356 OA
ATOM      7  N   UNL     1      -8.989  19.367  66.010  0.00  0.00    -0.059 NA
ATOM      8  C   UNL     1      -9.597  18.888  67.122  0.00  0.00    +0.213 A 
ATOM      9  N   UNL     1     -10.462  17.746  67.093  0.00  0.00    -0.074 NA
ATOM     10  C   UNL     1      -8.839  19.311  68.207  0.00  0.00    +0.077 A 
ENDBRANCH   1   9
BRANCH   1  11
ATOM     11  C   UNL     1     -11.021  15.043  66.380  0.00  0.00    +0.127 A 
ATOM     12  C   UNL     1     -11.325  14.889  67.721  0.00  0.00    +0.022 A 
ATOM     13  C   UNL     1     -11.813  13.670  68.151  0.00  0.00    +0.019 A 
ATOM     14  C   UNL     1     -11.949  12.600  67.277  0.00  0.00    +0.089 A 
ATOM     15  N   UNL     1     -11.733  11.248  67.693  0.00  0.00    -0.128 NA
ATOM     16  C   UNL     1     -12.053  12.916  65.928  0.00  0.00    +0.019 A 
ATOM     17  C   UNL     1     -11.681  14.176  65.517  0.00  0.00    +0.022 A 
ENDBRANCH   1  11
TORSDOF 2
ENDMDL
MODEL 7
REMARK VINA RESULT:      -6.4      2.265      6.447
REMARK  Name = 
REMARK  2 active torsions:
REMARK  status: ('A' for Active; 'I' for Inactive)
REMARK    1  A    between atoms: N_5  and  S_6
REMARK    2  A    between atoms: S_6  and  C_9
REMARK                            x       y       z     vdW  Elec       q    Type
REMARK                         _______ _______ _______ _____ _____    ______ ____
ROOT
ATOM      1  S   UNL     1     -10.156  14.772  68.368  0.00  0.00    +0.094 S 
ATOM      2  O   UNL     1      -9.643  13.371  68.245  0.00  0.00    -0.148 OA
ATOM      3  O   UNL     1      -8.997  15.713  68.609  0.00  0.00    -0.148 OA
ENDROOT
BRANCH   1   9
ATOM      4  C   UNL     1     -11.835  11.980  63.344  0.00  0.00    +0.075 C 
ATOM      5  C   UNL     1     -11.948  12.828  64.546  0.00  0.00    +0.156 A 
ATOM      6  O   UNL     1     -12.469  12.391  65.677  0.00  0.00    -0.356 OA
ATOM      7  N   UNL     1     -12.288  13.281  66.622  0.00  0.00    -0.059 NA
ATOM      8  C   UNL     1     -11.692  14.379  66.096  0.00  0.00    +0.213 A 
ATOM      9  N   UNL     1     -10.900  15.276  66.884  0.00  0.00    -0.074 NA
ATOM     10  C   UNL     1     -11.545  14.140  64.735  0.00  0.00    +0.077 A 
ENDBRANCH   1   9
BRANCH   1  11
ATOM     11  C   UNL     1     -11.271  14.942  69.690  0.00  0.00    +0.127 A 
ATOM     12  C   UNL     1     -12.042  13.854  70.061  0.00  0.00    +0.022 A 
ATOM     13  C   UNL     1     -12.955  14.011  71.086  0.00  0.00    +0.019 A 
ATOM     14  C   UNL     1     -13.141  15.242  71.702  0.00  0.00    +0.089 A 
ATOM     15  N   UNL     1     -14.423  15.667  72.175  0.00  0.00    -0.128 NA
ATOM     16  C   UNL     1     -12.088  16.142  71.610  0.00  0.00    +0.019 A 
ATOM     17  C   UNL     1     -11.110  15.918  70.667  0.00  0.00    +0.022 A 
ENDBRANCH   1  11
TORSDOF 2
ENDMDL
MODEL 8
REMARK VINA RESULT:      -6.1      1.409      1.623
REMARK  Name = 
REMARK  2 active torsions:
REMARK  status: ('A' for Active; 'I' for Inactive)
REMARK    1  A    between atoms: N_5  and  S_6
REMARK    2  A    between atoms: S_6  and  C_9
REMARK                            x       y       z     vdW  Elec       q    Type
REMARK                         _______ _______ _______ _____ _____    ______ ____
ROOT
ATOM      1  S   UNL     1     -10.588  13.511  68.718  0.00  0.00    +0.094 S 
ATOM      2  O   UNL     1      -9.648  14.440  69.420  0.00  0.00    -0.148 OA
ATOM      3  O   UNL     1      -9.941  12.152  68.577  0.00  0.00    -0.148 OA
ENDROOT
BRANCH   1   9
ATOM      4  C   UNL     1     -12.537  15.566  73.994  0.00  0.00    +0.075 C 
ATOM      5  C   UNL     1     -12.550  15.261  72.550  0.00  0.00    +0.156 A 
ATOM      6  O   UNL     1     -12.246  16.160  71.633  0.00  0.00    -0.356 OA
ATOM      7  N   UNL     1     -12.167  15.585  70.458  0.00  0.00    -0.059 NA
ATOM      8  C   UNL     1     -12.496  14.275  70.577  0.00  0.00    +0.213 A 
ATOM      9  N   UNL     1     -12.026  13.278  69.661  0.00  0.00    -0.074 NA
ATOM     10  C   UNL     1     -12.833  14.067  71.908  0.00  0.00    +0.077 A 
ENDBRANCH   1   9
BRANCH   1  11
ATOM     11  C   UNL     1     -10.996  14.080  67.127  0.00  0.00    +0.127 A 
ATOM     12  C   UNL     1      -9.998  14.610  66.328  0.00  0.00    +0.022 A 
ATOM     13  C   UNL     1     -10.340  15.097  65.082  0.00  0.00    +0.019 A 
ATOM     14  C   UNL     1     -11.660  15.109  64.651  0.00  0.00    +0.089 A 
ATOM     15  N   UNL     1     -12.178  16.154  63.820  0.00  0.00    -0.128 NA
ATOM     16  C   UNL     1     -12.518  14.207  65.267  0.00  0.00    +0.019 A 
ATOM     17  C   UNL     1     -12.123  13.626  66.450  0.00  0.00    +0.022 A 
ENDBRANCH   1  11
TORSDOF 2
ENDMDL
MODEL 9
REMARK VINA RESULT:      -6.0      3.600      4.098
REMARK  Name = 
REMARK  2 active torsions:
REMARK  status: ('A' for Active; 'I' for Inactive)
REMARK    1  A    between atoms: N_5  and  S_6
REMARK    2  A    between atoms: S_6  and  C_9
REMARK                            x       y       z     vdW  Elec       q    Type
REMARK                         _______ _______ _______ _____ _____    ______ ____
ROOT
ATOM      1  S   UNL     1     -10.886  11.803  67.661  0.00  0.00    +0.094 S 
ATOM      2  O   UNL     1      -9.461  11.406  67.887  0.00  0.00    -0.148 OA
ATOM      3  O   UNL     1     -11.678  10.599  67.206  0.00  0.00    -0.148 OA
ENDROOT
BRANCH   1   9
ATOM      4  C   UNL     1     -13.788   9.088  72.140  0.00  0.00    +0.075 C 
ATOM      5  C   UNL     1     -12.780   9.932  71.470  0.00  0.00    +0.156 A 
ATOM      6  O   UNL     1     -11.562   9.503  71.198  0.00  0.00    -0.356 OA
ATOM      7  N   UNL     1     -10.938  10.382  70.453  0.00  0.00    -0.059 NA
ATOM      8  C   UNL     1     -11.734  11.466  70.277  0.00  0.00    +0.213 A 
ATOM      9  N   UNL     1     -11.608  12.336  69.146  0.00  0.00    -0.074 NA
ATOM     10  C   UNL     1     -12.896  11.231  71.002  0.00  0.00    +0.077 A 
ENDBRANCH   1   9
BRANCH   1  11
ATOM     11  C   UNL     1     -11.032  13.035  66.444  0.00  0.00    +0.127 A 
ATOM     12  C   UNL     1      -9.922  13.796  66.124  0.00  0.00    +0.022 A 
ATOM     13  C   UNL     1     -10.058  14.800  65.185  0.00  0.00    +0.019 A 
ATOM     14  C   UNL     1     -11.289  15.084  64.607  0.00  0.00    +0.089 A 
ATOM     15  N   UNL     1     -11.673  16.417  64.255  0.00  0.00    -0.128 NA
ATOM     16  C   UNL     1     -12.227  14.059  64.622  0.00  0.00    +0.019 A 
ATOM     17  C   UNL     1     -12.026  12.995  65.473  0.00  0.00    +0.022 A 
ENDBRANCH   1  11
TORSDOF 2
ENDMDL
