MODEL 1
REMARK VINA RESULT:      -6.2      0.000      0.000
REMARK  Name = 
REMARK  6 active torsions:
REMARK  status: ('A' for Active; 'I' for Inactive)
REMARK    1  A    between atoms: O_2  and  C_3
REMARK    2  A    between atoms: C_3  and  C_4
REMARK    3  A    between atoms: C_4  and  N_5
REMARK    4  A    between atoms: C_4  and  C_9
REMARK    5  A    between atoms: N_11  and  C_12
REMARK    6  A    between atoms: C_12  and  C_13
REMARK                            x       y       z     vdW  Elec       q    Type
REMARK                         _______ _______ _______ _____ _____    ______ ____
ROOT
ATOM      1  C   UNL     1     -10.367  17.478  68.181  0.00  0.00    +0.264 C 
ATOM      2  N   UNL     1     -11.208  16.549  68.759  0.00  0.00    -0.199 NA
ATOM      3  O   UNL     1     -10.250  18.583  68.754  0.00  0.00    -0.271 OA
ENDROOT
BRANCH   1   4
ATOM      4  C   UNL     1     -10.208  17.583  66.561  0.00  0.00    +0.202 C 
BRANCH   4   5
ATOM      5  N   UNL     1     -10.531  16.041  66.292  0.00  0.00    -0.195 NA
ATOM      6  C   UNL     1     -11.041  15.812  64.996  0.00  0.00    +0.242 C 
ATOM      7  O   UNL     1     -11.309  16.741  64.208  0.00  0.00    -0.273 OA
ATOM      8  C   UNL     1     -11.333  14.392  64.620  0.00  0.00    +0.096 C 
ENDBRANCH   4   5
BRANCH   4   9
ATOM      9  C   UNL     1      -8.572  17.269  66.660  0.00  0.00    +0.173 C 
BRANCH   9  11
ATOM     10  C   UNL     1      -7.527  19.229  66.087  0.00  0.00    +0.174 C 
ATOM     11  O   UNL     1      -8.035  18.067  65.655  0.00  0.00    -0.349 OA
ENDBRANCH   9  11
ENDBRANCH   4   9
ENDBRANCH   1   4
BRANCH   2  12
ATOM     12  C   UNL     1     -10.846  16.162  70.127  0.00  0.00    +0.142 C 
BRANCH  12  13
ATOM     13  C   UNL     1     -12.010  15.991  71.003  0.00  0.00    -0.001 A 
ATOM     14  C   UNL     1     -13.036  15.156  70.578  0.00  0.00    -0.003 A 
ATOM     15  C   UNL     1     -13.793  14.450  71.506  0.00  0.00    -0.000 A 
ATOM     16  C   UNL     1     -13.426  14.399  72.846  0.00  0.00    -0.000 A 
ATOM     17  C   UNL     1     -12.580  15.393  73.284  0.00  0.00    -0.000 A 
ATOM     18  C   UNL     1     -11.911  16.187  72.362  0.00  0.00    -0.003 A 
ENDBRANCH  12  13
ENDBRANCH   2  12
TORSDOF 6
ENDMDL
MODEL 2
REMARK VINA RESULT:      -6.0      2.600      3.479
REMARK  Name = 
REMARK  6 active torsions:
REMARK  status: ('A' for Active; 'I' for Inactive)
REMARK    1  A    between atoms: O_2  and  C_3
REMARK    2  A    between atoms: C_3  and  C_4
REMARK    3  A    between atoms: C_4  and  N_5
REMARK    4  A    between atoms: C_4  and  C_9
REMARK    5  A    between atoms: N_11  and  C_12
REMARK    6  A    between atoms: C_12  and  C_13
REMARK                            x       y       z     vdW  Elec       q    Type
REMARK                         _______ _______ _______ _____ _____    ______ ____
ROOT
ATOM      1  C   UNL     1     -11.945  13.087  67.813  0.00  0.00    +0.264 C 
ATOM      2  N   UNL     1     -11.362  13.536  68.979  0.00  0.00    -0.199 NA
ATOM      3  O   UNL     1     -12.012  11.849  67.643  0.00  0.00    -0.271 OA
ENDROOT
BRANCH   1   4
ATOM      4  C   UNL     1     -11.786  13.911  66.414  0.00  0.00    +0.202 C 
BRANCH   4   5
ATOM      5  N   UNL     1     -11.972  12.627  65.479  0.00  0.00    -0.195 NA
ATOM      6  C   UNL     1     -12.321  12.968  64.154  0.00  0.00    +0.242 C 
ATOM      7  O   UNL     1     -12.566  14.140  63.807  0.00  0.00    -0.273 OA
ATOM      8  C   UNL     1     -12.474  11.842  63.179  0.00  0.00    +0.096 C 
ENDBRANCH   4   5
BRANCH   4   9
ATOM      9  C   UNL     1     -10.129  13.709  66.436  0.00  0.00    +0.173 C 
BRANCH   9  11
ATOM     10  C   UNL     1     -10.137  15.953  65.963  0.00  0.00    +0.174 C 
ATOM     11  O   UNL     1      -9.673  14.743  65.625  0.00  0.00    -0.349 OA
ENDBRANCH   9  11
ENDBRANCH   4   9
ENDBRANCH   1   4
BRANCH   2  12
ATOM     12  C   UNL     1     -12.021  13.081  70.209  0.00  0.00    +0.142 C 
BRANCH  12  13
ATOM     13  C   UNL     1     -12.563  14.182  71.012  0.00  0.00    -0.001 A 
ATOM     14  C   UNL     1     -13.202  13.874  72.206  0.00  0.00    -0.003 A 
ATOM     15  C   UNL     1     -13.159  14.765  73.272  0.00  0.00    -0.000 A 
ATOM     16  C   UNL     1     -12.326  15.877  73.249  0.00  0.00    -0.000 A 
ATOM     17  C   UNL     1     -11.899  16.293  72.008  0.00  0.00    -0.000 A 
ATOM     18  C   UNL     1     -12.048  15.455  70.910  0.00  0.00    -0.003 A 
ENDBRANCH  12  13
ENDBRANCH   2  12
TORSDOF 6
ENDMDL
MODEL 3
REMARK VINA RESULT:      -6.0      2.306      4.029
REMARK  Name = 
REMARK  6 active torsions:
REMARK  status: ('A' for Active; 'I' for Inactive)
REMARK    1  A    between atoms: O_2  and  C_3
REMARK    2  A    between atoms: C_3  and  C_4
REMARK    3  A    between atoms: C_4  and  N_5
REMARK    4  A    between atoms: C_4  and  C_9
REMARK    5  A    between atoms: N_11  and  C_12
REMARK    6  A    between atoms: C_12  and  C_13
REMARK                            x       y       z     vdW  Elec       q    Type
REMARK                         _______ _______ _______ _____ _____    ______ ____
ROOT
ATOM      1  C   UNL     1     -11.626  12.920  67.521  0.00  0.00    +0.264 C 
ATOM      2  N   UNL     1     -11.075  13.101  68.773  0.00  0.00    -0.199 NA
ATOM      3  O   UNL     1     -11.964  11.758  67.204  0.00  0.00    -0.271 OA
ENDROOT
BRANCH   1   4
ATOM      4  C   UNL     1     -11.137  13.809  66.243  0.00  0.00    +0.202 C 
BRANCH   4   5
ATOM      5  N   UNL     1     -11.147  15.199  67.034  0.00  0.00    -0.195 NA
ATOM      6  C   UNL     1     -10.390  16.196  66.383  0.00  0.00    +0.242 C 
ATOM      7  O   UNL     1      -9.704  15.962  65.369  0.00  0.00    -0.273 OA
ATOM      8  C   UNL     1     -10.370  17.555  67.013  0.00  0.00    +0.096 C 
ENDBRANCH   4   5
BRANCH   4   9
ATOM      9  C   UNL     1     -12.713  14.031  65.743  0.00  0.00    +0.173 C 
BRANCH   9  11
ATOM     10  C   UNL     1     -11.987  13.053  63.800  0.00  0.00    +0.174 C 
ATOM     11  O   UNL     1     -12.600  14.105  64.358  0.00  0.00    -0.349 OA
ENDBRANCH   9  11
ENDBRANCH   4   9
ENDBRANCH   1   4
BRANCH   2  12
ATOM     12  C   UNL     1     -11.943  12.707  69.888  0.00  0.00    +0.142 C 
BRANCH  12  13
ATOM     13  C   UNL     1     -12.484  13.851  70.627  0.00  0.00    -0.001 A 
ATOM     14  C   UNL     1     -13.214  13.603  71.783  0.00  0.00    -0.003 A 
ATOM     15  C   UNL     1     -13.200  14.519  72.829  0.00  0.00    -0.000 A 
ATOM     16  C   UNL     1     -12.316  15.592  72.836  0.00  0.00    -0.000 A 
ATOM     17  C   UNL     1     -11.790  15.955  71.617  0.00  0.00    -0.000 A 
ATOM     18  C   UNL     1     -11.906  15.097  70.531  0.00  0.00    -0.003 A 
ENDBRANCH  12  13
ENDBRANCH   2  12
TORSDOF 6
ENDMDL
MODEL 4
REMARK VINA RESULT:      -5.9      1.505      1.782
REMARK  Name = 
REMARK  6 active torsions:
REMARK  status: ('A' for Active; 'I' for Inactive)
REMARK    1  A    between atoms: O_2  and  C_3
REMARK    2  A    between atoms: C_3  and  C_4
REMARK    3  A    between atoms: C_4  and  N_5
REMARK    4  A    between atoms: C_4  and  C_9
REMARK    5  A    between atoms: N_11  and  C_12
REMARK    6  A    between atoms: C_12  and  C_13
REMARK                            x       y       z     vdW  Elec       q    Type
REMARK                         _______ _______ _______ _____ _____    ______ ____
ROOT
ATOM      1  C   UNL     1     -10.908  15.659  67.675  0.00  0.00    +0.264 C 
ATOM      2  N   UNL     1     -11.724  14.762  68.332  0.00  0.00    -0.199 NA
ATOM      3  O   UNL     1     -10.729  16.774  68.211  0.00  0.00    -0.271 OA
ENDROOT
BRANCH   1   4
ATOM      4  C   UNL     1     -10.861  15.724  66.045  0.00  0.00    +0.202 C 
BRANCH   4   5
ATOM      5  N   UNL     1     -11.211  14.178  65.837  0.00  0.00    -0.195 NA
ATOM      6  C   UNL     1     -12.059  13.959  64.730  0.00  0.00    +0.242 C 
ATOM      7  O   UNL     1     -12.560  14.894  64.075  0.00  0.00    -0.273 OA
ATOM      8  C   UNL     1     -12.412  12.539  64.414  0.00  0.00    +0.096 C 
ENDBRANCH   4   5
BRANCH   4   9
ATOM      9  C   UNL     1      -9.224  15.400  66.038  0.00  0.00    +0.173 C 
BRANCH   9  11
ATOM     10  C   UNL     1      -7.653  17.021  66.445  0.00  0.00    +0.174 C 
ATOM     11  O   UNL     1      -8.661  16.615  65.661  0.00  0.00    -0.349 OA
ENDBRANCH   9  11
ENDBRANCH   4   9
ENDBRANCH   1   4
BRANCH   2  12
ATOM     12  C   UNL     1     -11.275  14.398  69.681  0.00  0.00    +0.142 C 
BRANCH  12  13
ATOM     13  C   UNL     1     -12.184  14.862  70.733  0.00  0.00    -0.001 A 
ATOM     14  C   UNL     1     -13.012  13.929  71.346  0.00  0.00    -0.003 A 
ATOM     15  C   UNL     1     -13.385  14.092  72.675  0.00  0.00    -0.000 A 
ATOM     16  C   UNL     1     -12.794  15.061  73.476  0.00  0.00    -0.000 A 
ATOM     17  C   UNL     1     -12.178  16.102  72.819  0.00  0.00    -0.000 A 
ATOM     18  C   UNL     1     -11.909  15.998  71.460  0.00  0.00    -0.003 A 
ENDBRANCH  12  13
ENDBRANCH   2  12
TORSDOF 6
ENDMDL
MODEL 5
REMARK VINA RESULT:      -5.9      2.080      2.679
REMARK  Name = 
REMARK  6 active torsions:
REMARK  status: ('A' for Active; 'I' for Inactive)
REMARK    1  A    between atoms: O_2  and  C_3
REMARK    2  A    between atoms: C_3  and  C_4
REMARK    3  A    between atoms: C_4  and  N_5
REMARK    4  A    between atoms: C_4  and  C_9
REMARK    5  A    between atoms: N_11  and  C_12
REMARK    6  A    between atoms: C_12  and  C_13
REMARK                            x       y       z     vdW  Elec       q    Type
REMARK                         _______ _______ _______ _____ _____    ______ ____
ROOT
ATOM      1  C   UNL     1     -11.006  14.342  67.224  0.00  0.00    +0.264 C 
ATOM      2  N   UNL     1     -11.411  15.000  68.367  0.00  0.00    -0.199 NA
ATOM      3  O   UNL     1      -9.866  13.828  67.229  0.00  0.00    -0.271 OA
ENDROOT
BRANCH   1   4
ATOM      4  C   UNL     1     -11.464  14.856  65.744  0.00  0.00    +0.202 C 
BRANCH   4   5
ATOM      5  N   UNL     1     -10.812  13.621  64.965  0.00  0.00    -0.195 NA
ATOM      6  C   UNL     1     -11.783  12.760  64.408  0.00  0.00    +0.242 C 
ATOM      7  O   UNL     1     -13.004  12.904  64.615  0.00  0.00    -0.273 OA
ATOM      8  C   UNL     1     -11.281  11.594  63.614  0.00  0.00    +0.096 C 
ENDBRANCH   4   5
BRANCH   4   9
ATOM      9  C   UNL     1     -10.067  15.754  65.579  0.00  0.00    +0.173 C 
BRANCH   9  11
ATOM     10  C   UNL     1     -10.212  17.936  66.271  0.00  0.00    +0.174 C 
ATOM     11  O   UNL     1     -10.542  17.038  65.333  0.00  0.00    -0.349 OA
ENDBRANCH   9  11
ENDBRANCH   4   9
ENDBRANCH   1   4
BRANCH   2  12
ATOM     12  C   UNL     1     -11.442  14.168  69.575  0.00  0.00    +0.142 C 
BRANCH  12  13
ATOM     13  C   UNL     1     -12.269  14.736  70.643  0.00  0.00    -0.001 A 
ATOM     14  C   UNL     1     -13.097  13.882  71.362  0.00  0.00    -0.003 A 
ATOM     15  C   UNL     1     -13.385  14.145  72.696  0.00  0.00    -0.000 A 
ATOM     16  C   UNL     1     -12.709  15.137  73.397  0.00  0.00    -0.000 A 
ATOM     17  C   UNL     1     -12.091  16.106  72.639  0.00  0.00    -0.000 A 
ATOM     18  C   UNL     1     -11.907  15.904  71.277  0.00  0.00    -0.003 A 
ENDBRANCH  12  13
ENDBRANCH   2  12
TORSDOF 6
ENDMDL
MODEL 6
REMARK VINA RESULT:      -5.6      2.972      7.204
REMARK  Name = 
REMARK  6 active torsions:
REMARK  status: ('A' for Active; 'I' for Inactive)
REMARK    1  A    between atoms: O_2  and  C_3
REMARK    2  A    between atoms: C_3  and  C_4
REMARK    3  A    between atoms: C_4  and  N_5
REMARK    4  A    between atoms: C_4  and  C_9
REMARK    5  A    between atoms: N_11  and  C_12
REMARK    6  A    between atoms: C_12  and  C_13
REMARK                            x       y       z     vdW  Elec       q    Type
REMARK                         _______ _______ _______ _____ _____    ______ ____
ROOT
ATOM      1  C   UNL     1     -11.428  15.273  69.861  0.00  0.00    +0.264 C 
ATOM      2  N   UNL     1     -11.332  16.523  69.285  0.00  0.00    -0.199 NA
ATOM      3  O   UNL     1     -10.875  14.322  69.267  0.00  0.00    -0.271 OA
ENDROOT
BRANCH   1   4
ATOM      4  C   UNL     1     -12.765  14.819  70.679  0.00  0.00    +0.202 C 
BRANCH   4   5
ATOM      5  N   UNL     1     -12.106  15.002  72.125  0.00  0.00    -0.195 NA
ATOM      6  C   UNL     1     -12.989  15.599  73.050  0.00  0.00    +0.242 C 
ATOM      7  O   UNL     1     -14.111  16.033  72.721  0.00  0.00    -0.273 OA
ATOM      8  C   UNL     1     -12.490  15.774  74.451  0.00  0.00    +0.096 C 
ENDBRANCH   4   5
BRANCH   4   9
ATOM      9  C   UNL     1     -12.304  13.216  70.624  0.00  0.00    +0.173 C 
BRANCH   9  11
ATOM     10  C   UNL     1     -13.008  11.282  71.635  0.00  0.00    +0.174 C 
ATOM     11  O   UNL     1     -13.134  12.614  71.563  0.00  0.00    -0.349 OA
ENDBRANCH   9  11
ENDBRANCH   4   9
ENDBRANCH   1   4
BRANCH   2  12
ATOM     12  C   UNL     1      -9.960  17.012  69.108  0.00  0.00    +0.142 C 
BRANCH  12  13
ATOM     13  C   UNL     1      -9.896  18.313  68.434  0.00  0.00    -0.001 A 
ATOM     14  C   UNL     1      -8.705  19.026  68.490  0.00  0.00    -0.003 A 
ATOM     15  C   UNL     1      -8.338  19.858  67.438  0.00  0.00    -0.000 A 
ATOM     16  C   UNL     1      -9.034  19.849  66.235  0.00  0.00    -0.000 A 
ATOM     17  C   UNL     1     -10.313  19.340  66.275  0.00  0.00    -0.000 A 
ATOM     18  C   UNL     1     -10.730  18.608  67.379  0.00  0.00    -0.003 A 
ENDBRANCH  12  13
ENDBRANCH   2  12
TORSDOF 6
ENDMDL
MODEL 7
REMARK VINA RESULT:      -5.6      1.608      2.960
REMARK  Name = 
REMARK  6 active torsions:
REMARK  status: ('A' for Active; 'I' for Inactive)
REMARK    1  A    between atoms: O_2  and  C_3
REMARK    2  A    between atoms: C_3  and  C_4
REMARK    3  A    between atoms: C_4  and  N_5
REMARK    4  A    between atoms: C_4  and  C_9
REMARK    5  A    between atoms: N_11  and  C_12
REMARK    6  A    between atoms: C_12  and  C_13
REMARK                            x       y       z     vdW  Elec       q    Type
REMARK                         _______ _______ _______ _____ _____    ______ ____
ROOT
ATOM      1  C   UNL     1     -11.132  15.347  67.348  0.00  0.00    +0.264 C 
ATOM      2  N   UNL     1     -10.858  14.828  68.596  0.00  0.00    -0.199 NA
ATOM      3  O   UNL     1     -11.513  14.550  66.463  0.00  0.00    -0.271 OA
ENDROOT
BRANCH   1   4
ATOM      4  C   UNL     1     -10.278  16.601  66.746  0.00  0.00    +0.202 C 
BRANCH   4   5
ATOM      5  N   UNL     1      -8.868  16.075  67.285  0.00  0.00    -0.195 NA
ATOM      6  C   UNL     1      -7.777  16.702  66.647  0.00  0.00    +0.242 C 
ATOM      7  O   UNL     1      -7.922  17.489  65.691  0.00  0.00    -0.273 OA
ATOM      8  C   UNL     1      -6.405  16.319  67.110  0.00  0.00    +0.096 C 
ENDBRANCH   4   5
BRANCH   4   9
ATOM      9  C   UNL     1     -10.528  17.491  68.135  0.00  0.00    +0.173 C 
BRANCH   9  11
ATOM     10  C   UNL     1     -10.053  19.673  67.611  0.00  0.00    +0.174 C 
ATOM     11  O   UNL     1     -10.986  18.713  67.652  0.00  0.00    -0.349 OA
ENDBRANCH   9  11
ENDBRANCH   4   9
ENDBRANCH   1   4
BRANCH   2  12
ATOM     12  C   UNL     1     -11.990  14.153  69.242  0.00  0.00    +0.142 C 
BRANCH  12  13
ATOM     13  C   UNL     1     -12.016  14.339  70.696  0.00  0.00    -0.001 A 
ATOM     14  C   UNL     1     -11.540  15.537  71.215  0.00  0.00    -0.003 A 
ATOM     15  C   UNL     1     -12.081  16.054  72.387  0.00  0.00    -0.000 A 
ATOM     16  C   UNL     1     -13.226  15.509  72.955  0.00  0.00    -0.000 A 
ATOM     17  C   UNL     1     -13.535  14.219  72.584  0.00  0.00    -0.000 A 
ATOM     18  C   UNL     1     -12.908  13.648  71.484  0.00  0.00    -0.003 A 
ENDBRANCH  12  13
ENDBRANCH   2  12
TORSDOF 6
ENDMDL
MODEL 8
REMARK VINA RESULT:      -5.6      4.233      4.846
REMARK  Name = 
REMARK  6 active torsions:
REMARK  status: ('A' for Active; 'I' for Inactive)
REMARK    1  A    between atoms: O_2  and  C_3
REMARK    2  A    between atoms: C_3  and  C_4
REMARK    3  A    between atoms: C_4  and  N_5
REMARK    4  A    between atoms: C_4  and  C_9
REMARK    5  A    between atoms: N_11  and  C_12
REMARK    6  A    between atoms: C_12  and  C_13
REMARK                            x       y       z     vdW  Elec       q    Type
REMARK                         _______ _______ _______ _____ _____    ______ ____
ROOT
ATOM      1  C   UNL     1     -11.434  12.738  68.142  0.00  0.00    +0.264 C 
ATOM      2  N   UNL     1     -11.947  11.482  68.390  0.00  0.00    -0.199 NA
ATOM      3  O   UNL     1     -11.056  13.410  69.128  0.00  0.00    -0.271 OA
ENDROOT
BRANCH   1   4
ATOM      4  C   UNL     1     -12.008  13.663  66.927  0.00  0.00    +0.202 C 
BRANCH   4   5
ATOM      5  N   UNL     1     -12.083  12.466  65.870  0.00  0.00    -0.195 NA
ATOM      6  C   UNL     1     -12.447  12.906  64.579  0.00  0.00    +0.242 C 
ATOM      7  O   UNL     1     -12.782  14.084  64.342  0.00  0.00    -0.273 OA
ATOM      8  C   UNL     1     -12.500  11.872  63.497  0.00  0.00    +0.096 C 
ENDBRANCH   4   5
BRANCH   4   9
ATOM      9  C   UNL     1     -10.461  14.056  66.440  0.00  0.00    +0.173 C 
BRANCH   9  11
ATOM     10  C   UNL     1      -9.322  16.005  66.037  0.00  0.00    +0.174 C 
ATOM     11  O   UNL     1     -10.483  15.446  66.402  0.00  0.00    -0.349 OA
ENDBRANCH   9  11
ENDBRANCH   4   9
ENDBRANCH   1   4
BRANCH   2  12
ATOM     12  C   UNL     1     -11.023  10.565  69.066  0.00  0.00    +0.142 C 
BRANCH  12  13
ATOM     13  C   UNL     1     -11.401  10.288  70.455  0.00  0.00    -0.001 A 
ATOM     14  C   UNL     1     -12.672  10.658  70.878  0.00  0.00    -0.003 A 
ATOM     15  C   UNL     1     -13.325   9.920  71.858  0.00  0.00    -0.000 A 
ATOM     16  C   UNL     1     -12.825   8.698  72.294  0.00  0.00    -0.000 A 
ATOM     17  C   UNL     1     -11.488   8.468  72.058  0.00  0.00    -0.000 A 
ATOM     18  C   UNL     1     -10.795   9.279  71.168  0.00  0.00    -0.003 A 
ENDBRANCH  12  13
ENDBRANCH   2  12
TORSDOF 6
ENDMDL
MODEL 9
REMARK VINA RESULT:      -5.6      2.006      2.752
REMARK  Name = 
REMARK  6 active torsions:
REMARK  status: ('A' for Active; 'I' for Inactive)
REMARK    1  A    between atoms: O_2  and  C_3
REMARK    2  A    between atoms: C_3  and  C_4
REMARK    3  A    between atoms: C_4  and  N_5
REMARK    4  A    between atoms: C_4  and  C_9
REMARK    5  A    between atoms: N_11  and  C_12
REMARK    6  A    between atoms: C_12  and  C_13
REMARK                            x       y       z     vdW  Elec       q    Type
REMARK                         _______ _______ _______ _____ _____    ______ ____
ROOT
ATOM      1  C   UNL     1     -10.087  16.580  68.444  0.00  0.00    +0.264 C 
ATOM      2  N   UNL     1     -11.364  16.727  68.943  0.00  0.00    -0.199 NA
ATOM      3  O   UNL     1      -9.212  16.139  69.222  0.00  0.00    -0.271 OA
ENDROOT
BRANCH   1   4
ATOM      4  C   UNL     1      -9.486  17.617  67.336  0.00  0.00    +0.202 C 
BRANCH   4   5
ATOM      5  N   UNL     1      -7.955  17.274  67.647  0.00  0.00    -0.195 NA
ATOM      6  C   UNL     1      -7.102  17.579  66.565  0.00  0.00    +0.242 C 
ATOM      7  O   UNL     1      -7.533  17.962  65.459  0.00  0.00    -0.273 OA
ATOM      8  C   UNL     1      -5.637  17.342  66.766  0.00  0.00    +0.096 C 
ENDBRANCH   4   5
BRANCH   4   9
ATOM      9  C   UNL     1      -9.478  18.863  68.447  0.00  0.00    +0.173 C 
BRANCH   9  11
ATOM     10  C   UNL     1     -10.508  19.664  66.561  0.00  0.00    +0.174 C 
ATOM     11  O   UNL     1      -9.851  19.967  67.687  0.00  0.00    -0.349 OA
ENDBRANCH   9  11
ENDBRANCH   4   9
ENDBRANCH   1   4
BRANCH   2  12
ATOM     12  C   UNL     1     -11.974  15.488  69.439  0.00  0.00    +0.142 C 
BRANCH  12  13
ATOM     13  C   UNL     1     -12.591  15.641  70.761  0.00  0.00    -0.001 A 
ATOM     14  C   UNL     1     -13.627  14.783  71.108  0.00  0.00    -0.003 A 
ATOM     15  C   UNL     1     -13.815  14.414  72.435  0.00  0.00    -0.000 A 
ATOM     16  C   UNL     1     -12.873  14.723  73.409  0.00  0.00    -0.000 A 
ATOM     17  C   UNL     1     -12.004  15.749  73.113  0.00  0.00    -0.000 A 
ATOM     18  C   UNL     1     -11.897  16.208  71.806  0.00  0.00    -0.003 A 
ENDBRANCH  12  13
ENDBRANCH   2  12
TORSDOF 6
ENDMDL
