MODEL 1
REMARK VINA RESULT:      -6.6      0.000      0.000
REMARK  Name = 
REMARK  3 active torsions:
REMARK  status: ('A' for Active; 'I' for Inactive)
REMARK    1  A    between atoms: C_2  and  C_3
REMARK    2  A    between atoms: C_3  and  N_4
REMARK    3  A    between atoms: C_9  and  C_10
REMARK                            x       y       z     vdW  Elec       q    Type
REMARK                         _______ _______ _______ _____ _____    ______ ____
ROOT
ATOM      1  C   UNL     1     -11.698  12.865  68.974  0.00  0.00    +0.028 C 
ATOM      2  C   UNL     1     -11.206  14.083  68.258  0.00  0.00    +0.162 C 
ATOM      3  S   UNL     1      -9.613  14.033  67.669  0.00  0.00    +0.007 S 
ATOM      4  O   UNL     1      -8.557  14.807  68.270  0.00  0.00    -0.171 OA
ATOM      5  O   UNL     1      -9.144  12.616  67.470  0.00  0.00    -0.171 OA
ATOM      6  C   UNL     1      -9.914  14.584  65.880  0.00  0.00    +0.215 C 
ATOM      7  N   UNL     1     -11.215  15.311  66.255  0.00  0.00    -0.252 N 
ATOM      8  C   UNL     1     -10.677  16.311  65.471  0.00  0.00    +0.231 C 
ATOM      9  O   UNL     1     -11.097  16.805  64.378  0.00  0.00    -0.275 OA
ATOM     10  C   UNL     1      -9.290  16.066  65.998  0.00  0.00    +0.130 C 
ATOM     11  C   UNL     1     -12.120  14.158  66.854  0.00  0.00    +0.202 C 
ENDROOT
BRANCH  11  12
ATOM     12  C   UNL     1     -11.323  12.909  66.126  0.00  0.00    +0.384 C 
ATOM     13  O   UNL     1     -11.950  11.747  66.595  0.00  0.00    -0.244 OA
ATOM     14  O   UNL     1     -11.556  13.086  64.885  0.00  0.00    -0.244 OA
ENDBRANCH  11  12
BRANCH   2  15
ATOM     15  C   UNL     1     -11.620  15.367  68.904  0.00  0.00    +0.153 C 
BRANCH  15  16
ATOM     16  N   UNL     1     -12.144  15.200  70.259  0.00  0.00    -0.228 N 
ATOM     17  N   UNL     1     -13.312  15.712  70.649  0.00  0.00    -0.064 NA
ATOM     18  N   UNL     1     -13.336  15.903  71.953  0.00  0.00    -0.127 NA
ATOM     19  C   UNL     1     -12.040  16.141  72.268  0.00  0.00    +0.144 A 
ATOM     20  C   UNL     1     -11.322  15.439  71.313  0.00  0.00    +0.119 A 
ENDBRANCH  15  16
ENDBRANCH   2  15
TORSDOF 3
ENDMDL
MODEL 2
REMARK VINA RESULT:      -6.2      6.062      7.204
REMARK  Name = 
REMARK  3 active torsions:
REMARK  status: ('A' for Active; 'I' for Inactive)
REMARK    1  A    between atoms: C_2  and  C_3
REMARK    2  A    between atoms: C_3  and  N_4
REMARK    3  A    between atoms: C_9  and  C_10
REMARK                            x       y       z     vdW  Elec       q    Type
REMARK                         _______ _______ _______ _____ _____    ______ ____
ROOT
ATOM      1  C   UNL     1      -4.627  18.502  67.926  0.00  0.00    +0.028 C 
ATOM      2  C   UNL     1      -6.010  19.023  68.158  0.00  0.00    +0.162 C 
ATOM      3  S   UNL     1      -6.619  20.116  67.007  0.00  0.00    +0.007 S 
ATOM      4  O   UNL     1      -6.788  21.515  67.305  0.00  0.00    -0.171 OA
ATOM      5  O   UNL     1      -5.918  19.967  65.683  0.00  0.00    -0.171 OA
ATOM      6  C   UNL     1      -8.290  19.300  66.641  0.00  0.00    +0.215 C 
ATOM      7  N   UNL     1      -8.314  18.589  68.003  0.00  0.00    -0.252 N 
ATOM      8  C   UNL     1      -9.615  19.050  68.026  0.00  0.00    +0.231 C 
ATOM      9  O   UNL     1     -10.708  18.402  68.032  0.00  0.00    -0.275 OA
ATOM     10  C   UNL     1      -9.227  20.365  67.409  0.00  0.00    +0.130 C 
ATOM     11  C   UNL     1      -7.011  17.690  67.970  0.00  0.00    +0.202 C 
ENDROOT
BRANCH  11  12
ATOM     12  C   UNL     1      -6.858  17.656  66.328  0.00  0.00    +0.384 C 
ATOM     13  O   UNL     1      -5.684  16.933  66.079  0.00  0.00    -0.244 OA
ATOM     14  O   UNL     1      -7.886  17.007  65.943  0.00  0.00    -0.244 OA
ENDBRANCH  11  12
BRANCH   2  15
ATOM     15  C   UNL     1      -6.293  19.360  69.587  0.00  0.00    +0.153 C 
BRANCH  15  16
ATOM     16  N   UNL     1      -5.097  19.688  70.361  0.00  0.00    -0.228 N 
ATOM     17  N   UNL     1      -4.880  19.216  71.589  0.00  0.00    -0.064 NA
ATOM     18  N   UNL     1      -4.078  20.010  72.270  0.00  0.00    -0.127 NA
ATOM     19  C   UNL     1      -4.323  21.238  71.751  0.00  0.00    +0.144 A 
ATOM     20  C   UNL     1      -4.706  20.986  70.443  0.00  0.00    +0.119 A 
ENDBRANCH  15  16
ENDBRANCH   2  15
TORSDOF 3
ENDMDL
MODEL 3
REMARK VINA RESULT:      -6.0      1.571      1.745
REMARK  Name = 
REMARK  3 active torsions:
REMARK  status: ('A' for Active; 'I' for Inactive)
REMARK    1  A    between atoms: C_2  and  C_3
REMARK    2  A    between atoms: C_3  and  N_4
REMARK    3  A    between atoms: C_9  and  C_10
REMARK                            x       y       z     vdW  Elec       q    Type
REMARK                         _______ _______ _______ _____ _____    ______ ____
ROOT
ATOM      1  C   UNL     1     -11.551  13.451  69.560  0.00  0.00    +0.028 C 
ATOM      2  C   UNL     1     -10.937  14.795  69.321  0.00  0.00    +0.162 C 
ATOM      3  S   UNL     1      -9.345  14.814  68.725  0.00  0.00    +0.007 S 
ATOM      4  O   UNL     1      -8.233  15.219  69.544  0.00  0.00    -0.171 OA
ATOM      5  O   UNL     1      -9.007  13.527  68.021  0.00  0.00    -0.171 OA
ATOM      6  C   UNL     1      -9.566  15.996  67.259  0.00  0.00    +0.215 C 
ATOM      7  N   UNL     1     -10.799  16.656  67.894  0.00  0.00    -0.252 N 
ATOM      8  C   UNL     1     -10.158  17.818  67.513  0.00  0.00    +0.231 C 
ATOM      9  O   UNL     1     -10.513  18.708  66.678  0.00  0.00    -0.275 OA
ATOM     10  C   UNL     1      -8.809  17.272  67.891  0.00  0.00    +0.130 C 
ATOM     11  C   UNL     1     -11.817  15.454  68.055  0.00  0.00    +0.202 C 
ENDROOT
BRANCH  11  12
ATOM     12  C   UNL     1     -11.128  14.483  66.912  0.00  0.00    +0.384 C 
ATOM     13  O   UNL     1     -11.889  13.307  66.917  0.00  0.00    -0.244 OA
ATOM     14  O   UNL     1     -11.293  15.131  65.826  0.00  0.00    -0.244 OA
ENDBRANCH  11  12
BRANCH   2  15
ATOM     15  C   UNL     1     -11.240  15.793  70.393  0.00  0.00    +0.153 C 
BRANCH  15  16
ATOM     16  N   UNL     1     -12.277  15.355  71.326  0.00  0.00    -0.228 N 
ATOM     17  N   UNL     1     -13.548  15.749  71.229  0.00  0.00    -0.064 NA
ATOM     18  N   UNL     1     -14.155  15.686  72.398  0.00  0.00    -0.127 NA
ATOM     19  C   UNL     1     -13.158  15.896  73.292  0.00  0.00    +0.144 A 
ATOM     20  C   UNL     1     -12.025  15.410  72.659  0.00  0.00    +0.119 A 
ENDBRANCH  15  16
ENDBRANCH   2  15
TORSDOF 3
ENDMDL
MODEL 4
REMARK VINA RESULT:      -6.0      3.470      4.666
REMARK  Name = 
REMARK  3 active torsions:
REMARK  status: ('A' for Active; 'I' for Inactive)
REMARK    1  A    between atoms: C_2  and  C_3
REMARK    2  A    between atoms: C_3  and  N_4
REMARK    3  A    between atoms: C_9  and  C_10
REMARK                            x       y       z     vdW  Elec       q    Type
REMARK                         _______ _______ _______ _____ _____    ______ ____
ROOT
ATOM      1  C   UNL     1     -11.495  15.657  64.307  0.00  0.00    +0.028 C 
ATOM      2  C   UNL     1     -10.975  14.649  65.284  0.00  0.00    +0.162 C 
ATOM      3  S   UNL     1     -12.116  13.919  66.311  0.00  0.00    +0.007 S 
ATOM      4  O   UNL     1     -12.177  14.225  67.716  0.00  0.00    -0.171 OA
ATOM      5  O   UNL     1     -13.502  13.980  65.724  0.00  0.00    -0.171 OA
ATOM      6  C   UNL     1     -11.674  12.096  66.039  0.00  0.00    +0.215 C 
ATOM      7  N   UNL     1     -10.240  12.442  65.609  0.00  0.00    -0.252 N 
ATOM      8  C   UNL     1      -9.919  11.409  66.468  0.00  0.00    +0.231 C 
ATOM      9  O   UNL     1      -9.376  10.286  66.224  0.00  0.00    -0.275 OA
ATOM     10  C   UNL     1     -10.966  11.827  67.462  0.00  0.00    +0.130 C 
ATOM     11  C   UNL     1     -10.449  13.365  64.340  0.00  0.00    +0.202 C 
ENDROOT
BRANCH  11  12
ATOM     12  C   UNL     1     -11.974  12.842  63.989  0.00  0.00    +0.384 C 
ATOM     13  O   UNL     1     -12.431  13.690  62.971  0.00  0.00    -0.244 OA
ATOM     14  O   UNL     1     -11.793  11.658  63.551  0.00  0.00    -0.244 OA
ENDBRANCH  11  12
BRANCH   2  15
ATOM     15  C   UNL     1      -9.684  15.045  65.925  0.00  0.00    +0.153 C 
BRANCH  15  16
ATOM     16  N   UNL     1      -9.564  16.482  66.164  0.00  0.00    -0.228 N 
ATOM     17  N   UNL     1      -8.478  17.181  65.829  0.00  0.00    -0.064 NA
ATOM     18  N   UNL     1      -8.361  18.263  66.573  0.00  0.00    -0.127 NA
ATOM     19  C   UNL     1      -8.944  17.913  67.745  0.00  0.00    +0.144 A 
ATOM     20  C   UNL     1      -9.896  16.973  67.386  0.00  0.00    +0.119 A 
ENDBRANCH  15  16
ENDBRANCH   2  15
TORSDOF 3
ENDMDL
MODEL 5
REMARK VINA RESULT:      -5.9      2.292      5.355
REMARK  Name = 
REMARK  3 active torsions:
REMARK  status: ('A' for Active; 'I' for Inactive)
REMARK    1  A    between atoms: C_2  and  C_3
REMARK    2  A    between atoms: C_3  and  N_4
REMARK    3  A    between atoms: C_9  and  C_10
REMARK                            x       y       z     vdW  Elec       q    Type
REMARK                         _______ _______ _______ _____ _____    ______ ____
ROOT
ATOM      1  C   UNL     1      -9.566  15.568  65.822  0.00  0.00    +0.028 C 
ATOM      2  C   UNL     1     -10.473  15.086  66.910  0.00  0.00    +0.162 C 
ATOM      3  S   UNL     1      -9.742  14.279  68.215  0.00  0.00    +0.007 S 
ATOM      4  O   UNL     1      -9.892  12.861  68.410  0.00  0.00    -0.171 OA
ATOM      5  O   UNL     1      -8.289  14.653  68.347  0.00  0.00    -0.171 OA
ATOM      6  C   UNL     1     -10.509  15.240  69.658  0.00  0.00    +0.215 C 
ATOM      7  N   UNL     1     -11.721  15.665  68.814  0.00  0.00    -0.252 N 
ATOM      8  C   UNL     1     -12.420  15.279  69.941  0.00  0.00    +0.231 C 
ATOM      9  O   UNL     1     -13.136  15.970  70.731  0.00  0.00    -0.275 OA
ATOM     10  C   UNL     1     -11.522  14.096  70.170  0.00  0.00    +0.130 C 
ATOM     11  C   UNL     1     -11.072  16.481  67.623  0.00  0.00    +0.202 C 
ENDROOT
BRANCH  11  12
ATOM     12  C   UNL     1      -9.659  16.835  68.398  0.00  0.00    +0.384 C 
ATOM     13  O   UNL     1      -8.869  17.494  67.447  0.00  0.00    -0.244 OA
ATOM     14  O   UNL     1     -10.016  17.632  69.328  0.00  0.00    -0.244 OA
ENDBRANCH  11  12
BRANCH   2  15
ATOM     15  C   UNL     1     -11.747  14.486  66.407  0.00  0.00    +0.153 C 
BRANCH  15  16
ATOM     16  N   UNL     1     -11.660  13.985  65.037  0.00  0.00    -0.228 N 
ATOM     17  N   UNL     1     -12.514  14.349  64.079  0.00  0.00    -0.064 NA
ATOM     18  N   UNL     1     -12.588  13.432  63.135  0.00  0.00    -0.127 NA
ATOM     19  C   UNL     1     -12.327  12.274  63.788  0.00  0.00    +0.144 A 
ATOM     20  C   UNL     1     -11.502  12.651  64.835  0.00  0.00    +0.119 A 
ENDBRANCH  15  16
ENDBRANCH   2  15
TORSDOF 3
ENDMDL
MODEL 6
REMARK VINA RESULT:      -5.9      3.365      4.525
REMARK  Name = 
REMARK  3 active torsions:
REMARK  status: ('A' for Active; 'I' for Inactive)
REMARK    1  A    between atoms: C_2  and  C_3
REMARK    2  A    between atoms: C_3  and  N_4
REMARK    3  A    between atoms: C_9  and  C_10
REMARK                            x       y       z     vdW  Elec       q    Type
REMARK                         _______ _______ _______ _____ _____    ______ ____
ROOT
ATOM      1  C   UNL     1     -11.475  14.752  67.078  0.00  0.00    +0.028 C 
ATOM      2  C   UNL     1     -10.618  13.755  66.363  0.00  0.00    +0.162 C 
ATOM      3  S   UNL     1     -10.813  12.125  66.802  0.00  0.00    +0.007 S 
ATOM      4  O   UNL     1      -9.808  11.416  67.552  0.00  0.00    -0.171 OA
ATOM      5  O   UNL     1     -12.164  11.879  67.419  0.00  0.00    -0.171 OA
ATOM      6  C   UNL     1     -11.038  11.354  65.085  0.00  0.00    +0.215 C 
ATOM      7  N   UNL     1     -10.293  12.509  64.398  0.00  0.00    -0.252 N 
ATOM      8  C   UNL     1      -9.660  11.477  63.736  0.00  0.00    +0.231 C 
ATOM      9  O   UNL     1      -9.667  11.175  62.501  0.00  0.00    -0.275 OA
ATOM     10  C   UNL     1      -9.600  10.632  64.978  0.00  0.00    +0.130 C 
ATOM     11  C   UNL     1     -11.159  13.780  64.775  0.00  0.00    +0.202 C 
ENDROOT
BRANCH  11  12
ATOM     12  C   UNL     1     -12.549  12.956  65.110  0.00  0.00    +0.384 C 
ATOM     13  O   UNL     1     -13.469  13.932  65.513  0.00  0.00    -0.244 OA
ATOM     14  O   UNL     1     -12.879  12.453  63.985  0.00  0.00    -0.244 OA
ENDBRANCH  11  12
BRANCH   2  15
ATOM     15  C   UNL     1      -9.208  14.210  66.163  0.00  0.00    +0.153 C 
BRANCH  15  16
ATOM     16  N   UNL     1      -8.991  15.616  66.499  0.00  0.00    -0.228 N 
ATOM     17  N   UNL     1      -9.170  16.604  65.620  0.00  0.00    -0.064 NA
ATOM     18  N   UNL     1      -8.447  17.659  65.937  0.00  0.00    -0.127 NA
ATOM     19  C   UNL     1      -7.371  17.134  66.574  0.00  0.00    +0.144 A 
ATOM     20  C   UNL     1      -7.850  15.967  67.147  0.00  0.00    +0.119 A 
ENDBRANCH  15  16
ENDBRANCH   2  15
TORSDOF 3
ENDMDL
MODEL 7
REMARK VINA RESULT:      -5.8      1.636      2.548
REMARK  Name = 
REMARK  3 active torsions:
REMARK  status: ('A' for Active; 'I' for Inactive)
REMARK    1  A    between atoms: C_2  and  C_3
REMARK    2  A    between atoms: C_3  and  N_4
REMARK    3  A    between atoms: C_9  and  C_10
REMARK                            x       y       z     vdW  Elec       q    Type
REMARK                         _______ _______ _______ _____ _____    ______ ____
ROOT
ATOM      1  C   UNL     1      -9.205  14.987  68.864  0.00  0.00    +0.028 C 
ATOM      2  C   UNL     1     -10.332  14.958  67.880  0.00  0.00    +0.162 C 
ATOM      3  S   UNL     1     -10.015  15.589  66.334  0.00  0.00    +0.007 S 
ATOM      4  O   UNL     1     -10.580  16.838  65.894  0.00  0.00    -0.171 OA
ATOM      5  O   UNL     1      -8.542  15.568  66.023  0.00  0.00    -0.171 OA
ATOM      6  C   UNL     1     -10.643  14.154  65.266  0.00  0.00    +0.215 C 
ATOM      7  N   UNL     1     -11.580  13.653  66.376  0.00  0.00    -0.252 N 
ATOM      8  C   UNL     1     -12.485  13.575  65.337  0.00  0.00    +0.231 C 
ATOM      9  O   UNL     1     -13.065  12.561  64.836  0.00  0.00    -0.275 OA
ATOM     10  C   UNL     1     -11.991  14.856  64.725  0.00  0.00    +0.130 C 
ATOM     11  C   UNL     1     -10.592  13.329  67.571  0.00  0.00    +0.202 C 
ENDROOT
BRANCH  11  12
ATOM     12  C   UNL     1      -9.237  13.166  66.643  0.00  0.00    +0.384 C 
ATOM     13  O   UNL     1      -8.197  12.917  67.548  0.00  0.00    -0.244 OA
ATOM     14  O   UNL     1      -9.482  12.135  65.932  0.00  0.00    -0.244 OA
ENDBRANCH  11  12
BRANCH   2  15
ATOM     15  C   UNL     1     -11.656  15.323  68.471  0.00  0.00    +0.153 C 
BRANCH  15  16
ATOM     16  N   UNL     1     -11.778  14.987  69.889  0.00  0.00    -0.228 N 
ATOM     17  N   UNL     1     -12.551  13.994  70.331  0.00  0.00    -0.064 NA
ATOM     18  N   UNL     1     -12.919  14.199  71.580  0.00  0.00    -0.127 NA
ATOM     19  C   UNL     1     -12.947  15.549  71.692  0.00  0.00    +0.144 A 
ATOM     20  C   UNL     1     -11.998  15.986  70.782  0.00  0.00    +0.119 A 
ENDBRANCH  15  16
ENDBRANCH   2  15
TORSDOF 3
ENDMDL
MODEL 8
REMARK VINA RESULT:      -5.6      2.406      3.511
REMARK  Name = 
REMARK  3 active torsions:
REMARK  status: ('A' for Active; 'I' for Inactive)
REMARK    1  A    between atoms: C_2  and  C_3
REMARK    2  A    between atoms: C_3  and  N_4
REMARK    3  A    between atoms: C_9  and  C_10
REMARK                            x       y       z     vdW  Elec       q    Type
REMARK                         _______ _______ _______ _____ _____    ______ ____
ROOT
ATOM      1  C   UNL     1     -10.541  14.807  69.606  0.00  0.00    +0.028 C 
ATOM      2  C   UNL     1     -10.806  14.624  68.145  0.00  0.00    +0.162 C 
ATOM      3  S   UNL     1      -9.665  13.719  67.268  0.00  0.00    +0.007 S 
ATOM      4  O   UNL     1      -8.772  14.336  66.323  0.00  0.00    -0.171 OA
ATOM      5  O   UNL     1      -8.885  12.798  68.168  0.00  0.00    -0.171 OA
ATOM      6  C   UNL     1     -10.825  12.498  66.398  0.00  0.00    +0.215 C 
ATOM      7  N   UNL     1     -12.022  13.455  66.510  0.00  0.00    -0.252 N 
ATOM      8  C   UNL     1     -12.204  13.104  65.187  0.00  0.00    +0.231 C 
ATOM      9  O   UNL     1     -13.165  12.484  64.634  0.00  0.00    -0.275 OA
ATOM     10  C   UNL     1     -10.726  13.121  64.913  0.00  0.00    +0.130 C 
ATOM     11  C   UNL     1     -12.179  13.664  68.072  0.00  0.00    +0.202 C 
ENDROOT
BRANCH  11  12
ATOM     12  C   UNL     1     -11.386  12.287  68.517  0.00  0.00    +0.384 C 
ATOM     13  O   UNL     1     -11.448  12.260  69.916  0.00  0.00    -0.244 OA
ATOM     14  O   UNL     1     -12.093  11.355  68.009  0.00  0.00    -0.244 OA
ENDBRANCH  11  12
BRANCH   2  15
ATOM     15  C   UNL     1     -11.316  15.857  67.468  0.00  0.00    +0.153 C 
BRANCH  15  16
ATOM     16  N   UNL     1     -10.394  16.989  67.538  0.00  0.00    -0.228 N 
ATOM     17  N   UNL     1     -10.549  17.993  68.402  0.00  0.00    -0.064 NA
ATOM     18  N   UNL     1      -9.971  19.093  67.961  0.00  0.00    -0.127 NA
ATOM     19  C   UNL     1     -10.042  18.977  66.613  0.00  0.00    +0.144 A 
ATOM     20  C   UNL     1     -10.030  17.610  66.387  0.00  0.00    +0.119 A 
ENDBRANCH  15  16
ENDBRANCH   2  15
TORSDOF 3
ENDMDL
MODEL 9
REMARK VINA RESULT:      -5.5      3.441      4.948
REMARK  Name = 
REMARK  3 active torsions:
REMARK  status: ('A' for Active; 'I' for Inactive)
REMARK    1  A    between atoms: C_2  and  C_3
REMARK    2  A    between atoms: C_3  and  N_4
REMARK    3  A    between atoms: C_9  and  C_10
REMARK                            x       y       z     vdW  Elec       q    Type
REMARK                         _______ _______ _______ _____ _____    ______ ____
ROOT
ATOM      1  C   UNL     1     -10.088  13.245  67.890  0.00  0.00    +0.028 C 
ATOM      2  C   UNL     1     -10.353  14.650  67.445  0.00  0.00    +0.162 C 
ATOM      3  S   UNL     1     -10.732  15.778  68.659  0.00  0.00    +0.007 S 
ATOM      4  O   UNL     1     -12.061  16.311  68.810  0.00  0.00    -0.171 OA
ATOM      5  O   UNL     1     -10.212  15.337  70.001  0.00  0.00    -0.171 OA
ATOM      6  C   UNL     1      -9.504  17.152  68.214  0.00  0.00    +0.215 C 
ATOM      7  N   UNL     1      -9.416  16.689  66.752  0.00  0.00    -0.252 N 
ATOM      8  C   UNL     1      -9.560  18.039  66.498  0.00  0.00    +0.231 C 
ATOM      9  O   UNL     1      -8.754  18.855  65.950  0.00  0.00    -0.275 OA
ATOM     10  C   UNL     1     -10.563  18.205  67.606  0.00  0.00    +0.130 C 
ATOM     11  C   UNL     1      -8.879  15.204  66.868  0.00  0.00    +0.202 C 
ENDROOT
BRANCH  11  12
ATOM     12  C   UNL     1      -8.217  15.371  68.370  0.00  0.00    +0.384 C 
ATOM     13  O   UNL     1      -7.702  14.108  68.690  0.00  0.00    -0.244 OA
ATOM     14  O   UNL     1      -7.279  16.217  68.194  0.00  0.00    -0.244 OA
ENDBRANCH  11  12
BRANCH   2  15
ATOM     15  C   UNL     1     -11.170  14.740  66.196  0.00  0.00    +0.153 C 
BRANCH  15  16
ATOM     16  N   UNL     1     -11.227  13.490  65.440  0.00  0.00    -0.228 N 
ATOM     17  N   UNL     1     -10.541  13.297  64.312  0.00  0.00    -0.064 NA
ATOM     18  N   UNL     1     -11.115  12.383  63.557  0.00  0.00    -0.127 NA
ATOM     19  C   UNL     1     -12.431  12.490  63.864  0.00  0.00    +0.144 A 
ATOM     20  C   UNL     1     -12.439  12.939  65.175  0.00  0.00    +0.119 A 
ENDBRANCH  15  16
ENDBRANCH   2  15
TORSDOF 3
ENDMDL
