MODEL 1
REMARK VINA RESULT:      -7.1      0.000      0.000
REMARK  Name = 
REMARK  5 active torsions:
REMARK  status: ('A' for Active; 'I' for Inactive)
REMARK    1  A    between atoms: C_2  and  C_4
REMARK    2  A    between atoms: C_8  and  C_9
REMARK    3  A    between atoms: C_12  and  S_13
REMARK    4  A    between atoms: S_13  and  C_14
REMARK    5  A    between atoms: C_17  and  C_18
REMARK                            x       y       z     vdW  Elec       q    Type
REMARK                         _______ _______ _______ _____ _____    ______ ____
ROOT
ATOM      1  C   UNL     1     -11.160  13.757  64.623  0.00  0.00    +0.126 C 
ATOM      2  C   UNL     1     -10.190  13.843  66.016  0.00  0.00    +0.096 C 
ATOM      3  N   UNL     1     -11.495  14.374  66.681  0.00  0.00    -0.254 N 
ATOM      4  C   UNL     1     -10.854  15.151  67.697  0.00  0.00    +0.136 C 
ATOM      5  C   UNL     1      -9.872  15.871  67.280  0.00  0.00    +0.024 C 
ATOM      6  C   UNL     1      -9.598  15.449  65.749  0.00  0.00    +0.049 C 
ATOM      7  C   UNL     1     -11.021  16.110  65.262  0.00  0.00    +0.007 C 
ATOM      8  C   UNL     1     -12.346  13.833  65.675  0.00  0.00    +0.233 C 
ATOM      9  O   UNL     1     -13.513  14.200  65.385  0.00  0.00    -0.274 OA
ENDROOT
BRANCH   1  11
ATOM     10  C   UNL     1     -12.198  11.852  63.363  0.00  0.00    +0.036 C 
ATOM     11  C   UNL     1     -11.101  12.027  64.611  0.00  0.00    +0.162 C 
ATOM     12  O   UNL     1      -9.936  12.001  63.610  0.00  0.00    -0.223 OA
ENDBRANCH   1  11
BRANCH   4  13
ATOM     13  C   UNL     1     -11.441  15.304  69.029  0.00  0.00    +0.401 C 
ATOM     14  O   UNL     1     -11.252  14.289  69.971  0.00  0.00    -0.239 OA
ATOM     15  O   UNL     1     -12.296  16.166  69.270  0.00  0.00    -0.239 OA
ENDBRANCH   4  13
BRANCH   5  16
ATOM     16  S   UNL     1      -9.613  17.576  67.810  0.00  0.00    -0.116 S 
BRANCH  16  17
ATOM     17  C   UNL     1      -7.725  17.892  67.852  0.00  0.00    +0.071 C 
ATOM     18  C   UNL     1      -7.622  18.745  66.511  0.00  0.00    +0.039 C 
ATOM     19  C   UNL     1      -6.081  19.194  66.999  0.00  0.00    +0.150 C 
ATOM     20  N   UNL     1      -6.592  19.837  68.369  0.00  0.00    -0.209 NA
ATOM     21  C   UNL     1      -7.822  19.278  68.624  0.00  0.00    +0.100 C 
BRANCH  19  22
ATOM     22  C   UNL     1      -6.190  20.642  66.230  0.00  0.00    +0.242 C 
ATOM     23  N   UNL     1      -5.354  20.651  65.110  0.00  0.00    -0.275 N 
ATOM     24  C   UNL     1      -5.834  20.233  63.843  0.00  0.00    +0.115 C 
ATOM     25  C   UNL     1      -4.135  21.444  65.138  0.00  0.00    +0.115 C 
ATOM     26  O   UNL     1      -6.224  21.597  67.034  0.00  0.00    -0.273 OA
ENDBRANCH  19  22
ENDBRANCH  16  17
ENDBRANCH   5  16
TORSDOF 5
ENDMDL
MODEL 2
REMARK VINA RESULT:      -7.0      2.385      4.211
REMARK  Name = 
REMARK  5 active torsions:
REMARK  status: ('A' for Active; 'I' for Inactive)
REMARK    1  A    between atoms: C_2  and  C_4
REMARK    2  A    between atoms: C_8  and  C_9
REMARK    3  A    between atoms: C_12  and  S_13
REMARK    4  A    between atoms: S_13  and  C_14
REMARK    5  A    between atoms: C_17  and  C_18
REMARK                            x       y       z     vdW  Elec       q    Type
REMARK                         _______ _______ _______ _____ _____    ______ ____
ROOT
ATOM      1  C   UNL     1     -10.807  12.126  68.821  0.00  0.00    +0.126 C 
ATOM      2  C   UNL     1     -11.900  13.203  68.089  0.00  0.00    +0.096 C 
ATOM      3  N   UNL     1     -11.187  12.761  66.776  0.00  0.00    -0.254 N 
ATOM      4  C   UNL     1     -11.436  13.964  66.044  0.00  0.00    +0.136 C 
ATOM      5  C   UNL     1     -11.207  15.047  66.700  0.00  0.00    +0.024 C 
ATOM      6  C   UNL     1     -10.910  14.617  68.225  0.00  0.00    +0.049 C 
ATOM      7  C   UNL     1      -9.489  13.911  67.799  0.00  0.00    +0.007 C 
ATOM      8  C   UNL     1     -10.667  11.562  67.344  0.00  0.00    +0.233 C 
ATOM      9  O   UNL     1      -9.681  10.893  66.943  0.00  0.00    -0.274 OA
ENDROOT
BRANCH   1  11
ATOM     10  C   UNL     1     -11.077   9.962  70.060  0.00  0.00    +0.036 C 
ATOM     11  C   UNL     1     -12.078  11.036  69.262  0.00  0.00    +0.162 C 
ATOM     12  O   UNL     1     -12.355  11.777  70.579  0.00  0.00    -0.223 OA
ENDBRANCH   1  11
BRANCH   4  13
ATOM     13  C   UNL     1     -11.675  13.946  64.600  0.00  0.00    +0.401 C 
ATOM     14  O   UNL     1     -12.665  14.777  64.068  0.00  0.00    -0.239 OA
ATOM     15  O   UNL     1     -11.217  13.055  63.874  0.00  0.00    -0.239 OA
ENDBRANCH   4  13
BRANCH   5  16
ATOM     16  S   UNL     1     -10.362  16.469  65.979  0.00  0.00    -0.116 S 
BRANCH  16  17
ATOM     17  C   UNL     1     -10.278  17.836  67.319  0.00  0.00    +0.071 C 
ATOM     18  C   UNL     1      -8.727  17.708  67.655  0.00  0.00    +0.039 C 
ATOM     19  C   UNL     1      -8.854  19.173  68.462  0.00  0.00    +0.150 C 
ATOM     20  N   UNL     1      -9.374  19.956  67.170  0.00  0.00    -0.209 NA
ATOM     21  C   UNL     1      -9.877  19.003  66.317  0.00  0.00    +0.100 C 
BRANCH  19  22
ATOM     22  C   UNL     1      -7.295  19.568  68.125  0.00  0.00    +0.242 C 
ATOM     23  N   UNL     1      -6.479  19.263  69.218  0.00  0.00    -0.275 N 
ATOM     24  C   UNL     1      -5.862  17.991  69.330  0.00  0.00    +0.115 C 
ATOM     25  C   UNL     1      -5.940  20.344  70.027  0.00  0.00    +0.115 C 
ATOM     26  O   UNL     1      -7.209  20.658  67.523  0.00  0.00    -0.273 OA
ENDBRANCH  19  22
ENDBRANCH  16  17
ENDBRANCH   5  16
TORSDOF 5
ENDMDL
MODEL 3
REMARK VINA RESULT:      -6.7      2.796      4.235
REMARK  Name = 
REMARK  5 active torsions:
REMARK  status: ('A' for Active; 'I' for Inactive)
REMARK    1  A    between atoms: C_2  and  C_4
REMARK    2  A    between atoms: C_8  and  C_9
REMARK    3  A    between atoms: C_12  and  S_13
REMARK    4  A    between atoms: S_13  and  C_14
REMARK    5  A    between atoms: C_17  and  C_18
REMARK                            x       y       z     vdW  Elec       q    Type
REMARK                         _______ _______ _______ _____ _____    ______ ____
ROOT
ATOM      1  C   UNL     1     -10.973  11.198  69.429  0.00  0.00    +0.126 C 
ATOM      2  C   UNL     1     -11.957  12.463  68.863  0.00  0.00    +0.096 C 
ATOM      3  N   UNL     1     -11.650  11.844  67.466  0.00  0.00    -0.254 N 
ATOM      4  C   UNL     1     -11.803  13.052  66.716  0.00  0.00    +0.136 C 
ATOM      5  C   UNL     1     -11.222  14.079  67.232  0.00  0.00    +0.024 C 
ATOM      6  C   UNL     1     -10.695  13.636  68.689  0.00  0.00    +0.049 C 
ATOM      7  C   UNL     1      -9.574  12.631  68.031  0.00  0.00    +0.007 C 
ATOM      8  C   UNL     1     -11.274  10.577  68.000  0.00  0.00    +0.233 C 
ATOM      9  O   UNL     1     -10.555   9.703  67.453  0.00  0.00    -0.274 OA
ENDROOT
BRANCH   1  11
ATOM     10  C   UNL     1     -11.368   9.440  71.174  0.00  0.00    +0.036 C 
ATOM     11  C   UNL     1     -12.311  10.416  70.201  0.00  0.00    +0.162 C 
ATOM     12  O   UNL     1     -12.384  11.477  71.311  0.00  0.00    -0.223 OA
ENDBRANCH   1  11
BRANCH   4  13
ATOM     13  C   UNL     1     -12.349  13.047  65.358  0.00  0.00    +0.401 C 
ATOM     14  O   UNL     1     -11.693  12.310  64.368  0.00  0.00    -0.239 OA
ATOM     15  O   UNL     1     -13.210  13.860  64.999  0.00  0.00    -0.239 OA
ENDBRANCH   4  13
BRANCH   5  16
ATOM     16  S   UNL     1     -10.284  15.268  66.251  0.00  0.00    -0.116 S 
BRANCH  16  17
ATOM     17  C   UNL     1      -9.182  16.271  67.453  0.00  0.00    +0.071 C 
ATOM     18  C   UNL     1      -8.577  17.289  66.389  0.00  0.00    +0.039 C 
ATOM     19  C   UNL     1      -8.044  18.215  67.682  0.00  0.00    +0.150 C 
ATOM     20  N   UNL     1      -9.511  18.401  68.285  0.00  0.00    -0.209 NA
ATOM     21  C   UNL     1     -10.275  17.383  67.767  0.00  0.00    +0.100 C 
BRANCH  19  22
ATOM     22  C   UNL     1      -8.176  19.609  66.822  0.00  0.00    +0.242 C 
ATOM     23  N   UNL     1      -6.913  20.023  66.389  0.00  0.00    -0.275 N 
ATOM     24  C   UNL     1      -6.401  19.601  65.136  0.00  0.00    +0.115 C 
ATOM     25  C   UNL     1      -6.292  21.181  67.013  0.00  0.00    +0.115 C 
ATOM     26  O   UNL     1      -8.987  20.403  67.341  0.00  0.00    -0.273 OA
ENDBRANCH  19  22
ENDBRANCH  16  17
ENDBRANCH   5  16
TORSDOF 5
ENDMDL
MODEL 4
REMARK VINA RESULT:      -6.7      2.538      8.368
REMARK  Name = 
REMARK  5 active torsions:
REMARK  status: ('A' for Active; 'I' for Inactive)
REMARK    1  A    between atoms: C_2  and  C_4
REMARK    2  A    between atoms: C_8  and  C_9
REMARK    3  A    between atoms: C_12  and  S_13
REMARK    4  A    between atoms: S_13  and  C_14
REMARK    5  A    between atoms: C_17  and  C_18
REMARK                            x       y       z     vdW  Elec       q    Type
REMARK                         _______ _______ _______ _____ _____    ______ ____
ROOT
ATOM      1  C   UNL     1      -4.675  19.480  69.427  0.00  0.00    +0.126 C 
ATOM      2  C   UNL     1      -5.632  19.374  68.025  0.00  0.00    +0.096 C 
ATOM      3  N   UNL     1      -6.797  19.706  69.005  0.00  0.00    -0.254 N 
ATOM      4  C   UNL     1      -7.828  19.057  68.257  0.00  0.00    +0.136 C 
ATOM      5  C   UNL     1      -7.517  17.885  67.822  0.00  0.00    +0.024 C 
ATOM      6  C   UNL     1      -5.948  17.675  68.126  0.00  0.00    +0.049 C 
ATOM      7  C   UNL     1      -6.221  17.616  69.745  0.00  0.00    +0.007 C 
ATOM      8  C   UNL     1      -5.936  20.255  70.000  0.00  0.00    +0.233 C 
ATOM      9  O   UNL     1      -6.175  20.386  71.227  0.00  0.00    -0.274 OA
ENDROOT
BRANCH   1  11
ATOM     10  C   UNL     1      -2.897  21.075  70.194  0.00  0.00    +0.036 C 
ATOM     11  C   UNL     1      -3.885  20.912  68.857  0.00  0.00    +0.162 C 
ATOM     12  O   UNL     1      -2.794  20.108  68.132  0.00  0.00    -0.223 OA
ENDBRANCH   1  11
BRANCH   4  13
ATOM     13  C   UNL     1      -9.195  19.579  68.223  0.00  0.00    +0.401 C 
ATOM     14  O   UNL     1      -9.597  20.352  67.131  0.00  0.00    -0.239 OA
ATOM     15  O   UNL     1      -9.919  19.574  69.227  0.00  0.00    -0.239 OA
ENDBRANCH   4  13
BRANCH   5  16
ATOM     16  S   UNL     1      -8.649  16.483  67.891  0.00  0.00    -0.116 S 
BRANCH  16  17
ATOM     17  C   UNL     1      -8.946  15.888  66.094  0.00  0.00    +0.071 C 
ATOM     18  C   UNL     1      -9.899  14.658  66.432  0.00  0.00    +0.039 C 
ATOM     19  C   UNL     1     -10.298  14.611  64.804  0.00  0.00    +0.150 C 
ATOM     20  N   UNL     1     -10.837  16.114  64.787  0.00  0.00    -0.209 NA
ATOM     21  C   UNL     1     -10.269  16.741  65.871  0.00  0.00    +0.100 C 
BRANCH  19  22
ATOM     22  C   UNL     1     -11.801  14.030  65.122  0.00  0.00    +0.242 C 
ATOM     23  N   UNL     1     -11.796  12.634  65.066  0.00  0.00    -0.275 N 
ATOM     24  C   UNL     1     -11.532  11.862  66.226  0.00  0.00    +0.115 C 
ATOM     25  C   UNL     1     -12.436  11.965  63.945  0.00  0.00    +0.115 C 
ATOM     26  O   UNL     1     -12.691  14.708  64.567  0.00  0.00    -0.273 OA
ENDBRANCH  19  22
ENDBRANCH  16  17
ENDBRANCH   5  16
TORSDOF 5
ENDMDL
MODEL 5
REMARK VINA RESULT:      -6.6      2.942      7.929
REMARK  Name = 
REMARK  5 active torsions:
REMARK  status: ('A' for Active; 'I' for Inactive)
REMARK    1  A    between atoms: C_2  and  C_4
REMARK    2  A    between atoms: C_8  and  C_9
REMARK    3  A    between atoms: C_12  and  S_13
REMARK    4  A    between atoms: S_13  and  C_14
REMARK    5  A    between atoms: C_17  and  C_18
REMARK                            x       y       z     vdW  Elec       q    Type
REMARK                         _______ _______ _______ _____ _____    ______ ____
ROOT
ATOM      1  C   UNL     1      -8.321  18.860  67.700  0.00  0.00    +0.126 C 
ATOM      2  C   UNL     1      -8.247  17.241  67.190  0.00  0.00    +0.096 C 
ATOM      3  N   UNL     1      -9.477  17.640  66.320  0.00  0.00    -0.254 N 
ATOM      4  C   UNL     1     -10.060  16.336  66.255  0.00  0.00    +0.136 C 
ATOM      5  C   UNL     1     -10.101  15.710  67.380  0.00  0.00    +0.024 C 
ATOM      6  C   UNL     1      -9.260  16.592  68.436  0.00  0.00    +0.049 C 
ATOM      7  C   UNL     1     -10.393  17.782  68.416  0.00  0.00    +0.007 C 
ATOM      8  C   UNL     1      -9.197  19.036  66.389  0.00  0.00    +0.233 C 
ATOM      9  O   UNL     1     -10.003  19.984  66.210  0.00  0.00    -0.274 OA
ENDROOT
BRANCH   1  11
ATOM     10  C   UNL     1      -6.811  20.841  67.401  0.00  0.00    +0.036 C 
ATOM     11  C   UNL     1      -6.826  19.243  66.915  0.00  0.00    +0.162 C 
ATOM     12  O   UNL     1      -5.995  18.847  68.146  0.00  0.00    -0.223 OA
ENDBRANCH   1  11
BRANCH   4  13
ATOM     13  C   UNL     1     -10.777  15.876  65.064  0.00  0.00    +0.401 C 
ATOM     14  O   UNL     1     -10.619  14.550  64.650  0.00  0.00    -0.239 OA
ATOM     15  O   UNL     1     -11.309  16.669  64.278  0.00  0.00    -0.239 OA
ENDBRANCH   4  13
BRANCH   5  16
ATOM     16  S   UNL     1     -11.541  14.771  67.926  0.00  0.00    -0.116 S 
BRANCH  16  17
ATOM     17  C   UNL     1     -10.915  13.103  68.628  0.00  0.00    +0.071 C 
ATOM     18  C   UNL     1     -11.577  12.151  67.536  0.00  0.00    +0.039 C 
ATOM     19  C   UNL     1     -10.591  10.923  68.113  0.00  0.00    +0.150 C 
ATOM     20  N   UNL     1      -9.243  11.728  67.821  0.00  0.00    -0.209 NA
ATOM     21  C   UNL     1      -9.594  13.055  67.743  0.00  0.00    +0.100 C 
BRANCH  19  22
ATOM     22  C   UNL     1     -10.525  10.196  66.640  0.00  0.00    +0.242 C 
ATOM     23  N   UNL     1      -9.833   8.986  66.736  0.00  0.00    -0.275 N 
ATOM     24  C   UNL     1     -10.519   7.777  67.017  0.00  0.00    +0.115 C 
ATOM     25  C   UNL     1      -8.497   8.884  66.170  0.00  0.00    +0.115 C 
ATOM     26  O   UNL     1     -10.299  11.014  65.725  0.00  0.00    -0.273 OA
ENDBRANCH  19  22
ENDBRANCH  16  17
ENDBRANCH   5  16
TORSDOF 5
ENDMDL
MODEL 6
REMARK VINA RESULT:      -6.6      2.336      2.711
REMARK  Name = 
REMARK  5 active torsions:
REMARK  status: ('A' for Active; 'I' for Inactive)
REMARK    1  A    between atoms: C_2  and  C_4
REMARK    2  A    between atoms: C_8  and  C_9
REMARK    3  A    between atoms: C_12  and  S_13
REMARK    4  A    between atoms: S_13  and  C_14
REMARK    5  A    between atoms: C_17  and  C_18
REMARK                            x       y       z     vdW  Elec       q    Type
REMARK                         _______ _______ _______ _____ _____    ______ ____
ROOT
ATOM      1  C   UNL     1     -11.068  13.610  64.834  0.00  0.00    +0.126 C 
ATOM      2  C   UNL     1     -10.209  13.581  66.300  0.00  0.00    +0.096 C 
ATOM      3  N   UNL     1     -11.460  14.331  66.848  0.00  0.00    -0.254 N 
ATOM      4  C   UNL     1     -10.785  15.025  67.900  0.00  0.00    +0.136 C 
ATOM      5  C   UNL     1      -9.670  15.568  67.555  0.00  0.00    +0.024 C 
ATOM      6  C   UNL     1      -9.349  15.064  66.058  0.00  0.00    +0.049 C 
ATOM      7  C   UNL     1     -10.604  15.929  65.446  0.00  0.00    +0.007 C 
ATOM      8  C   UNL     1     -12.306  13.903  65.783  0.00  0.00    +0.233 C 
ATOM      9  O   UNL     1     -13.372  14.442  65.393  0.00  0.00    -0.274 OA
ENDROOT
BRANCH   1  11
ATOM     10  C   UNL     1     -12.233  11.850  63.478  0.00  0.00    +0.036 C 
ATOM     11  C   UNL     1     -11.287  11.893  64.854  0.00  0.00    +0.162 C 
ATOM     12  O   UNL     1     -10.026  11.649  64.011  0.00  0.00    -0.223 OA
ENDBRANCH   1  11
BRANCH   4  13
ATOM     13  C   UNL     1     -11.443  15.307  69.177  0.00  0.00    +0.401 C 
ATOM     14  O   UNL     1     -11.275  14.411  70.237  0.00  0.00    -0.239 OA
ATOM     15  O   UNL     1     -12.332  16.162  69.277  0.00  0.00    -0.239 OA
ENDBRANCH   4  13
BRANCH   5  16
ATOM     16  S   UNL     1      -9.184  17.225  68.077  0.00  0.00    -0.116 S 
BRANCH  16  17
ATOM     17  C   UNL     1      -7.303  17.405  67.764  0.00  0.00    +0.071 C 
ATOM     18  C   UNL     1      -7.019  18.554  68.828  0.00  0.00    +0.039 C 
ATOM     19  C   UNL     1      -5.385  18.223  68.644  0.00  0.00    +0.150 C 
ATOM     20  N   UNL     1      -5.542  16.694  69.078  0.00  0.00    -0.209 NA
ATOM     21  C   UNL     1      -6.865  16.372  68.891  0.00  0.00    +0.100 C 
BRANCH  19  22
ATOM     22  C   UNL     1      -5.054  18.671  70.190  0.00  0.00    +0.242 C 
ATOM     23  N   UNL     1      -4.239  19.807  70.193  0.00  0.00    -0.275 N 
ATOM     24  C   UNL     1      -4.807  21.106  70.210  0.00  0.00    +0.115 C 
ATOM     25  C   UNL     1      -2.842  19.679  70.574  0.00  0.00    +0.115 C 
ATOM     26  O   UNL     1      -4.815  17.687  70.921  0.00  0.00    -0.273 OA
ENDBRANCH  19  22
ENDBRANCH  16  17
ENDBRANCH   5  16
TORSDOF 5
ENDMDL
MODEL 7
REMARK VINA RESULT:      -6.5      4.105      8.783
REMARK  Name = 
REMARK  5 active torsions:
REMARK  status: ('A' for Active; 'I' for Inactive)
REMARK    1  A    between atoms: C_2  and  C_4
REMARK    2  A    between atoms: C_8  and  C_9
REMARK    3  A    between atoms: C_12  and  S_13
REMARK    4  A    between atoms: S_13  and  C_14
REMARK    5  A    between atoms: C_17  and  C_18
REMARK                            x       y       z     vdW  Elec       q    Type
REMARK                         _______ _______ _______ _____ _____    ______ ____
ROOT
ATOM      1  C   UNL     1      -9.053  16.340  67.701  0.00  0.00    +0.126 C 
ATOM      2  C   UNL     1      -9.178  15.465  66.249  0.00  0.00    +0.096 C 
ATOM      3  N   UNL     1     -10.707  15.538  66.541  0.00  0.00    -0.254 N 
ATOM      4  C   UNL     1     -11.062  14.340  65.845  0.00  0.00    +0.136 C 
ATOM      5  C   UNL     1     -10.294  13.335  66.084  0.00  0.00    +0.024 C 
ATOM      6  C   UNL     1      -9.055  13.889  66.954  0.00  0.00    +0.049 C 
ATOM      7  C   UNL     1     -10.028  14.169  68.248  0.00  0.00    +0.007 C 
ATOM      8  C   UNL     1     -10.586  16.646  67.430  0.00  0.00    +0.233 C 
ATOM      9  O   UNL     1     -11.396  16.997  68.324  0.00  0.00    -0.274 OA
ENDROOT
BRANCH   1  11
ATOM     10  C   UNL     1      -8.250  18.649  68.265  0.00  0.00    +0.036 C 
ATOM     11  C   UNL     1      -8.486  17.753  66.875  0.00  0.00    +0.162 C 
ATOM     12  O   UNL     1      -7.025  17.280  66.916  0.00  0.00    -0.223 OA
ENDBRANCH   1  11
BRANCH   4  13
ATOM     13  C   UNL     1     -12.336  14.214  65.136  0.00  0.00    +0.401 C 
ATOM     14  O   UNL     1     -12.428  14.680  63.821  0.00  0.00    -0.239 OA
ATOM     15  O   UNL     1     -13.388  13.946  65.730  0.00  0.00    -0.239 OA
ENDBRANCH   4  13
BRANCH   5  16
ATOM     16  S   UNL     1     -10.922  11.667  66.362  0.00  0.00    -0.116 S 
BRANCH  16  17
ATOM     17  C   UNL     1      -9.860  10.867  67.740  0.00  0.00    +0.071 C 
ATOM     18  C   UNL     1     -11.038  10.558  68.765  0.00  0.00    +0.039 C 
ATOM     19  C   UNL     1      -9.964   9.571  69.592  0.00  0.00    +0.150 C 
ATOM     20  N   UNL     1      -9.684   8.640  68.325  0.00  0.00    -0.209 NA
ATOM     21  C   UNL     1     -10.037   9.375  67.219  0.00  0.00    +0.100 C 
BRANCH  19  22
ATOM     22  C   UNL     1     -11.169   8.580  70.107  0.00  0.00    +0.242 C 
ATOM     23  N   UNL     1     -11.534   8.911  71.415  0.00  0.00    -0.275 N 
ATOM     24  C   UNL     1     -12.557   9.861  71.664  0.00  0.00    +0.115 C 
ATOM     25  C   UNL     1     -11.163   8.022  72.504  0.00  0.00    +0.115 C 
ATOM     26  O   UNL     1     -10.984   7.397  69.755  0.00  0.00    -0.273 OA
ENDBRANCH  19  22
ENDBRANCH  16  17
ENDBRANCH   5  16
TORSDOF 5
ENDMDL
MODEL 8
REMARK VINA RESULT:      -6.5      2.854      8.109
REMARK  Name = 
REMARK  5 active torsions:
REMARK  status: ('A' for Active; 'I' for Inactive)
REMARK    1  A    between atoms: C_2  and  C_4
REMARK    2  A    between atoms: C_8  and  C_9
REMARK    3  A    between atoms: C_12  and  S_13
REMARK    4  A    between atoms: S_13  and  C_14
REMARK    5  A    between atoms: C_17  and  C_18
REMARK                            x       y       z     vdW  Elec       q    Type
REMARK                         _______ _______ _______ _____ _____    ______ ____
ROOT
ATOM      1  C   UNL     1      -5.897  17.881  67.496  0.00  0.00    +0.126 C 
ATOM      2  C   UNL     1      -6.971  17.581  66.212  0.00  0.00    +0.096 C 
ATOM      3  N   UNL     1      -7.924  18.511  67.022  0.00  0.00    -0.254 N 
ATOM      4  C   UNL     1      -9.147  17.950  66.537  0.00  0.00    +0.136 C 
ATOM      5  C   UNL     1      -9.178  16.663  66.525  0.00  0.00    +0.024 C 
ATOM      6  C   UNL     1      -7.690  16.156  66.882  0.00  0.00    +0.049 C 
ATOM      7  C   UNL     1      -7.823  16.702  68.426  0.00  0.00    +0.007 C 
ATOM      8  C   UNL     1      -6.868  19.105  67.772  0.00  0.00    +0.233 C 
ATOM      9  O   UNL     1      -6.957  19.688  68.883  0.00  0.00    -0.274 OA
ENDROOT
BRANCH   1  11
ATOM     10  C   UNL     1      -3.674  19.032  67.656  0.00  0.00    +0.036 C 
ATOM     11  C   UNL     1      -4.829  18.784  66.475  0.00  0.00    +0.162 C 
ATOM     12  O   UNL     1      -4.094  17.520  66.003  0.00  0.00    -0.223 OA
ENDBRANCH   1  11
BRANCH   4  13
ATOM     13  C   UNL     1     -10.338  18.775  66.328  0.00  0.00    +0.401 C 
ATOM     14  O   UNL     1     -11.011  19.286  67.442  0.00  0.00    -0.239 OA
ATOM     15  O   UNL     1     -10.910  18.827  65.232  0.00  0.00    -0.239 OA
ENDBRANCH   4  13
BRANCH   5  16
ATOM     16  S   UNL     1     -10.614  15.713  67.063  0.00  0.00    -0.116 S 
BRANCH  16  17
ATOM     17  C   UNL     1     -10.708  14.137  65.978  0.00  0.00    +0.071 C 
ATOM     18  C   UNL     1      -9.987  13.140  66.987  0.00  0.00    +0.039 C 
ATOM     19  C   UNL     1     -10.552  11.880  66.035  0.00  0.00    +0.150 C 
ATOM     20  N   UNL     1     -12.083  12.297  66.213  0.00  0.00    -0.209 NA
ATOM     21  C   UNL     1     -12.084  13.620  66.584  0.00  0.00    +0.100 C 
BRANCH  19  22
ATOM     22  C   UNL     1     -10.636  10.860  67.320  0.00  0.00    +0.242 C 
ATOM     23  N   UNL     1      -9.767   9.782  67.131  0.00  0.00    -0.275 N 
ATOM     24  C   UNL     1      -8.428   9.841  67.593  0.00  0.00    +0.115 C 
ATOM     25  C   UNL     1     -10.316   8.470  66.827  0.00  0.00    +0.115 C 
ATOM     26  O   UNL     1     -11.810  10.698  67.711  0.00  0.00    -0.273 OA
ENDBRANCH  19  22
ENDBRANCH  16  17
ENDBRANCH   5  16
TORSDOF 5
ENDMDL
MODEL 9
REMARK VINA RESULT:      -6.4      2.415      7.331
REMARK  Name = 
REMARK  5 active torsions:
REMARK  status: ('A' for Active; 'I' for Inactive)
REMARK    1  A    between atoms: C_2  and  C_4
REMARK    2  A    between atoms: C_8  and  C_9
REMARK    3  A    between atoms: C_12  and  S_13
REMARK    4  A    between atoms: S_13  and  C_14
REMARK    5  A    between atoms: C_17  and  C_18
REMARK                            x       y       z     vdW  Elec       q    Type
REMARK                         _______ _______ _______ _____ _____    ______ ____
ROOT
ATOM      1  C   UNL     1      -5.852  18.206  66.889  0.00  0.00    +0.126 C 
ATOM      2  C   UNL     1      -7.089  17.224  66.262  0.00  0.00    +0.096 C 
ATOM      3  N   UNL     1      -7.927  18.536  66.331  0.00  0.00    -0.254 N 
ATOM      4  C   UNL     1      -9.202  17.906  66.480  0.00  0.00    +0.136 C 
ATOM      5  C   UNL     1      -9.228  16.947  67.339  0.00  0.00    +0.024 C 
ATOM      6  C   UNL     1      -7.703  16.678  67.786  0.00  0.00    +0.049 C 
ATOM      7  C   UNL     1      -7.627  18.122  68.565  0.00  0.00    +0.007 C 
ATOM      8  C   UNL     1      -6.782  19.383  66.372  0.00  0.00    +0.233 C 
ATOM      9  O   UNL     1      -6.720  20.562  66.804  0.00  0.00    -0.274 OA
ENDROOT
BRANCH   1  11
ATOM     10  C   UNL     1      -3.659  19.018  65.982  0.00  0.00    +0.036 C 
ATOM     11  C   UNL     1      -4.938  18.102  65.422  0.00  0.00    +0.162 C 
ATOM     12  O   UNL     1      -4.229  16.814  65.870  0.00  0.00    -0.223 OA
ENDBRANCH   1  11
BRANCH   4  13
ATOM     13  C   UNL     1     -10.415  18.483  65.898  0.00  0.00    +0.401 C 
ATOM     14  O   UNL     1     -11.027  17.830  64.824  0.00  0.00    -0.239 OA
ATOM     15  O   UNL     1     -10.771  19.641  66.150  0.00  0.00    -0.239 OA
ENDBRANCH   4  13
BRANCH   5  16
ATOM     16  S   UNL     1     -10.572  16.728  68.522  0.00  0.00    -0.116 S 
BRANCH  16  17
ATOM     17  C   UNL     1     -11.447  15.075  68.109  0.00  0.00    +0.071 C 
ATOM     18  C   UNL     1     -10.770  14.825  66.690  0.00  0.00    +0.039 C 
ATOM     19  C   UNL     1     -11.348  13.253  66.770  0.00  0.00    +0.150 C 
ATOM     20  N   UNL     1     -10.585  12.933  68.136  0.00  0.00    -0.209 NA
ATOM     21  C   UNL     1     -10.310  14.147  68.719  0.00  0.00    +0.100 C 
BRANCH  19  22
ATOM     22  C   UNL     1     -10.092  12.676  65.883  0.00  0.00    +0.242 C 
ATOM     23  N   UNL     1     -10.534  11.654  65.037  0.00  0.00    -0.275 N 
ATOM     24  C   UNL     1     -10.991  11.944  63.727  0.00  0.00    +0.115 C 
ATOM     25  C   UNL     1     -10.166  10.279  65.332  0.00  0.00    +0.115 C 
ATOM     26  O   UNL     1      -9.052  12.563  66.564  0.00  0.00    -0.273 OA
ENDBRANCH  19  22
ENDBRANCH  16  17
ENDBRANCH   5  16
TORSDOF 5
ENDMDL
