MODEL 1
REMARK VINA RESULT:      -4.5      0.000      0.000
REMARK  Name = 
REMARK  3 active torsions:
REMARK  status: ('A' for Active; 'I' for Inactive)
REMARK    1  A    between atoms: C_2  and  C_4
REMARK    2  A    between atoms: C_4  and  C_6
REMARK    3  A    between atoms: C_6  and  C_8
REMARK                            x       y       z     vdW  Elec       q    Type
REMARK                         _______ _______ _______ _____ _____    ______ ____
ROOT
ATOM      1  C   UNL     1     -10.788  13.637  64.701  0.00  0.00    +0.182 C 
ATOM      2  S   UNL     1     -10.405  12.195  65.884  0.00  0.00    -0.070 S 
ENDROOT
BRANCH   1   4
ATOM      3  O   UNL     1     -12.961  12.577  64.985  0.00  0.00    -0.245 OA
ATOM      4  C   UNL     1     -12.148  13.048  64.235  0.00  0.00    +0.377 C 
ATOM      5  O   UNL     1     -12.605  13.703  63.085  0.00  0.00    -0.245 OA
ENDBRANCH   1   4
BRANCH   1   6
ATOM      6  C   UNL     1     -11.409  14.765  65.721  0.00  0.00    +0.182 C 
ATOM      7  S   UNL     1     -10.247  14.511  67.205  0.00  0.00    -0.070 S 
BRANCH   6   8
ATOM      8  C   UNL     1     -10.686  16.012  65.151  0.00  0.00    +0.377 C 
ATOM      9  O   UNL     1     -11.399  16.696  64.160  0.00  0.00    -0.245 OA
ATOM     10  O   UNL     1      -9.633  16.455  65.560  0.00  0.00    -0.245 OA
ENDBRANCH   6   8
ENDBRANCH   1   6
TORSDOF 3
ENDMDL
MODEL 2
REMARK VINA RESULT:      -4.4      0.240      3.615
REMARK  Name = 
REMARK  3 active torsions:
REMARK  status: ('A' for Active; 'I' for Inactive)
REMARK    1  A    between atoms: C_2  and  C_4
REMARK    2  A    between atoms: C_4  and  C_6
REMARK    3  A    between atoms: C_6  and  C_8
REMARK                            x       y       z     vdW  Elec       q    Type
REMARK                         _______ _______ _______ _____ _____    ______ ____
ROOT
ATOM      1  C   UNL     1     -11.271  14.847  65.763  0.00  0.00    +0.182 C 
ATOM      2  S   UNL     1      -9.860  14.877  67.041  0.00  0.00    -0.070 S 
ENDROOT
BRANCH   1   4
ATOM      3  O   UNL     1     -11.388  16.734  64.229  0.00  0.00    -0.245 OA
ATOM      4  C   UNL     1     -10.712  16.044  64.944  0.00  0.00    +0.377 C 
ATOM      5  O   UNL     1      -9.627  16.633  65.604  0.00  0.00    -0.245 OA
ENDBRANCH   1   4
BRANCH   1   6
ATOM      6  C   UNL     1     -10.779  13.667  64.733  0.00  0.00    +0.182 C 
ATOM      7  S   UNL     1     -10.674  12.214  65.957  0.00  0.00    -0.070 S 
BRANCH   6   8
ATOM      8  C   UNL     1     -12.161  13.289  64.140  0.00  0.00    +0.377 C 
ATOM      9  O   UNL     1     -12.979  12.546  64.996  0.00  0.00    -0.245 OA
ATOM     10  O   UNL     1     -12.582  13.662  63.064  0.00  0.00    -0.245 OA
ENDBRANCH   6   8
ENDBRANCH   1   6
TORSDOF 3
ENDMDL
MODEL 3
REMARK VINA RESULT:      -4.4      1.162      3.487
REMARK  Name = 
REMARK  3 active torsions:
REMARK  status: ('A' for Active; 'I' for Inactive)
REMARK    1  A    between atoms: C_2  and  C_4
REMARK    2  A    between atoms: C_4  and  C_6
REMARK    3  A    between atoms: C_6  and  C_8
REMARK                            x       y       z     vdW  Elec       q    Type
REMARK                         _______ _______ _______ _____ _____    ______ ____
ROOT
ATOM      1  C   UNL     1     -11.797  14.481  65.057  0.00  0.00    +0.182 C 
ATOM      2  S   UNL     1     -11.689  14.401  66.958  0.00  0.00    -0.070 S 
ENDROOT
BRANCH   1   4
ATOM      3  O   UNL     1      -9.885  15.978  65.243  0.00  0.00    -0.245 OA
ATOM      4  C   UNL     1     -11.044  15.837  64.955  0.00  0.00    +0.377 C 
ATOM      5  O   UNL     1     -11.574  16.622  63.925  0.00  0.00    -0.245 OA
ENDBRANCH   1   4
BRANCH   1   6
ATOM      6  C   UNL     1     -10.539  13.530  64.600  0.00  0.00    +0.182 C 
ATOM      7  S   UNL     1     -10.426  12.410  66.133  0.00  0.00    -0.070 S 
BRANCH   6   8
ATOM      8  C   UNL     1     -11.321  12.527  63.714  0.00  0.00    +0.377 C 
ATOM      9  O   UNL     1     -12.555  12.995  63.254  0.00  0.00    -0.245 OA
ATOM     10  O   UNL     1     -10.900  11.450  63.344  0.00  0.00    -0.245 OA
ENDBRANCH   6   8
ENDBRANCH   1   6
TORSDOF 3
ENDMDL
MODEL 4
REMARK VINA RESULT:      -4.3      0.789      1.286
REMARK  Name = 
REMARK  3 active torsions:
REMARK  status: ('A' for Active; 'I' for Inactive)
REMARK    1  A    between atoms: C_2  and  C_4
REMARK    2  A    between atoms: C_4  and  C_6
REMARK    3  A    between atoms: C_6  and  C_8
REMARK                            x       y       z     vdW  Elec       q    Type
REMARK                         _______ _______ _______ _____ _____    ______ ____
ROOT
ATOM      1  C   UNL     1     -10.975  13.883  64.670  0.00  0.00    +0.182 C 
ATOM      2  S   UNL     1     -10.203  12.333  65.464  0.00  0.00    -0.070 S 
ENDROOT
BRANCH   1   4
ATOM      3  O   UNL     1     -13.323  13.981  65.304  0.00  0.00    -0.245 OA
ATOM      4  C   UNL     1     -12.433  13.360  64.787  0.00  0.00    +0.377 C 
ATOM      5  O   UNL     1     -12.746  12.518  63.713  0.00  0.00    -0.245 OA
ENDBRANCH   1   4
BRANCH   1   6
ATOM      6  C   UNL     1     -11.043  14.923  65.939  0.00  0.00    +0.182 C 
ATOM      7  S   UNL     1      -9.326  14.603  66.693  0.00  0.00    -0.070 S 
BRANCH   6   8
ATOM      8  C   UNL     1     -10.659  16.224  65.189  0.00  0.00    +0.377 C 
ATOM      9  O   UNL     1      -9.441  16.786  65.584  0.00  0.00    -0.245 OA
ATOM     10  O   UNL     1     -11.282  16.706  64.265  0.00  0.00    -0.245 OA
ENDBRANCH   6   8
ENDBRANCH   1   6
TORSDOF 3
ENDMDL
MODEL 5
REMARK VINA RESULT:      -4.0      2.253      3.400
REMARK  Name = 
REMARK  3 active torsions:
REMARK  status: ('A' for Active; 'I' for Inactive)
REMARK    1  A    between atoms: C_2  and  C_4
REMARK    2  A    between atoms: C_4  and  C_6
REMARK    3  A    between atoms: C_6  and  C_8
REMARK                            x       y       z     vdW  Elec       q    Type
REMARK                         _______ _______ _______ _____ _____    ______ ____
ROOT
ATOM      1  C   UNL     1     -10.981  12.765  66.530  0.00  0.00    +0.182 C 
ATOM      2  S   UNL     1      -9.334  13.450  67.198  0.00  0.00    -0.070 S 
ENDROOT
BRANCH   1   4
ATOM      3  O   UNL     1     -11.974  13.281  68.692  0.00  0.00    -0.245 OA
ATOM      4  C   UNL     1     -11.554  12.444  67.938  0.00  0.00    +0.377 C 
ATOM      5  O   UNL     1     -12.148  11.176  67.956  0.00  0.00    -0.245 OA
ENDBRANCH   1   4
BRANCH   1   6
ATOM      6  C   UNL     1     -11.849  14.136  66.279  0.00  0.00    +0.182 C 
ATOM      7  S   UNL     1     -10.531  15.176  65.384  0.00  0.00    -0.070 S 
BRANCH   6   8
ATOM      8  C   UNL     1     -12.611  13.695  65.003  0.00  0.00    +0.377 C 
ATOM      9  O   UNL     1     -12.611  14.637  63.970  0.00  0.00    -0.245 OA
ATOM     10  O   UNL     1     -13.104  12.599  64.830  0.00  0.00    -0.245 OA
ENDBRANCH   6   8
ENDBRANCH   1   6
TORSDOF 3
ENDMDL
MODEL 6
REMARK VINA RESULT:      -4.0      1.835      3.383
REMARK  Name = 
REMARK  3 active torsions:
REMARK  status: ('A' for Active; 'I' for Inactive)
REMARK    1  A    between atoms: C_2  and  C_4
REMARK    2  A    between atoms: C_4  and  C_6
REMARK    3  A    between atoms: C_6  and  C_8
REMARK                            x       y       z     vdW  Elec       q    Type
REMARK                         _______ _______ _______ _____ _____    ______ ____
ROOT
ATOM      1  C   UNL     1     -11.295  15.047  66.061  0.00  0.00    +0.182 C 
ATOM      2  S   UNL     1      -9.643  15.991  65.969  0.00  0.00    -0.070 S 
ENDROOT
BRANCH   1   4
ATOM      3  O   UNL     1     -12.546  14.730  63.997  0.00  0.00    -0.245 OA
ATOM      4  C   UNL     1     -11.654  15.296  64.570  0.00  0.00    +0.377 C 
ATOM      5  O   UNL     1     -11.359  16.614  64.202  0.00  0.00    -0.245 OA
ENDBRANCH   1   4
BRANCH   1   6
ATOM      6  C   UNL     1     -10.811  13.488  65.881  0.00  0.00    +0.182 C 
ATOM      7  S   UNL     1      -9.188  13.552  66.872  0.00  0.00    -0.070 S 
BRANCH   6   8
ATOM      8  C   UNL     1     -11.670  12.851  67.004  0.00  0.00    +0.377 C 
ATOM      9  O   UNL     1     -12.122  13.752  67.973  0.00  0.00    -0.245 OA
ATOM     10  O   UNL     1     -12.027  11.691  67.035  0.00  0.00    -0.245 OA
ENDBRANCH   6   8
ENDBRANCH   1   6
TORSDOF 3
ENDMDL
MODEL 7
REMARK VINA RESULT:      -4.0      2.089      3.319
REMARK  Name = 
REMARK  3 active torsions:
REMARK  status: ('A' for Active; 'I' for Inactive)
REMARK    1  A    between atoms: C_2  and  C_4
REMARK    2  A    between atoms: C_4  and  C_6
REMARK    3  A    between atoms: C_6  and  C_8
REMARK                            x       y       z     vdW  Elec       q    Type
REMARK                         _______ _______ _______ _____ _____    ______ ____
ROOT
ATOM      1  C   UNL     1     -11.925  14.348  66.654  0.00  0.00    +0.182 C 
ATOM      2  S   UNL     1     -11.353  12.602  67.158  0.00  0.00    -0.070 S 
ENDROOT
BRANCH   1   4
ATOM      3  O   UNL     1     -11.864  15.780  68.622  0.00  0.00    -0.245 OA
ATOM      4  C   UNL     1     -11.271  15.044  67.880  0.00  0.00    +0.377 C 
ATOM      5  O   UNL     1     -10.243  14.254  68.409  0.00  0.00    -0.245 OA
ENDBRANCH   1   4
BRANCH   1   6
ATOM      6  C   UNL     1     -10.782  14.782  65.557  0.00  0.00    +0.182 C 
ATOM      7  S   UNL     1     -10.583  13.124  64.646  0.00  0.00    -0.070 S 
BRANCH   6   8
ATOM      8  C   UNL     1     -11.712  15.442  64.507  0.00  0.00    +0.377 C 
ATOM      9  O   UNL     1     -11.361  16.749  64.157  0.00  0.00    -0.245 OA
ATOM     10  O   UNL     1     -12.626  14.882  63.935  0.00  0.00    -0.245 OA
ENDBRANCH   6   8
ENDBRANCH   1   6
TORSDOF 3
ENDMDL
MODEL 8
REMARK VINA RESULT:      -3.9      2.379      3.637
REMARK  Name = 
REMARK  3 active torsions:
REMARK  status: ('A' for Active; 'I' for Inactive)
REMARK    1  A    between atoms: C_2  and  C_4
REMARK    2  A    between atoms: C_4  and  C_6
REMARK    3  A    between atoms: C_6  and  C_8
REMARK                            x       y       z     vdW  Elec       q    Type
REMARK                         _______ _______ _______ _____ _____    ______ ____
ROOT
ATOM      1  C   UNL     1     -12.013  14.002  66.370  0.00  0.00    +0.182 C 
ATOM      2  S   UNL     1     -10.519  14.911  65.614  0.00  0.00    -0.070 S 
ENDROOT
BRANCH   1   4
ATOM      3  O   UNL     1     -12.597  14.636  64.093  0.00  0.00    -0.245 OA
ATOM      4  C   UNL     1     -12.779  13.895  65.022  0.00  0.00    +0.377 C 
ATOM      5  O   UNL     1     -13.129  12.567  64.754  0.00  0.00    -0.245 OA
ENDBRANCH   1   4
BRANCH   1   6
ATOM      6  C   UNL     1     -11.485  12.447  66.411  0.00  0.00    +0.182 C 
ATOM      7  S   UNL     1      -9.617  12.760  66.587  0.00  0.00    -0.070 S 
BRANCH   6   8
ATOM      8  C   UNL     1     -11.749  12.156  67.911  0.00  0.00    +0.377 C 
ATOM      9  O   UNL     1     -11.580  13.256  68.757  0.00  0.00    -0.245 OA
ATOM     10  O   UNL     1     -12.161  11.103  68.354  0.00  0.00    -0.245 OA
ENDBRANCH   6   8
ENDBRANCH   1   6
TORSDOF 3
ENDMDL
MODEL 9
REMARK VINA RESULT:      -3.9      1.862      4.014
REMARK  Name = 
REMARK  3 active torsions:
REMARK  status: ('A' for Active; 'I' for Inactive)
REMARK    1  A    between atoms: C_2  and  C_4
REMARK    2  A    between atoms: C_4  and  C_6
REMARK    3  A    between atoms: C_6  and  C_8
REMARK                            x       y       z     vdW  Elec       q    Type
REMARK                         _______ _______ _______ _____ _____    ______ ____
ROOT
ATOM      1  C   UNL     1     -10.109  16.779  66.132  0.00  0.00    +0.182 C 
ATOM      2  S   UNL     1     -10.548  16.544  67.971  0.00  0.00    -0.070 S 
ENDROOT
BRANCH   1   4
ATOM      3  O   UNL     1      -8.055  15.559  66.602  0.00  0.00    -0.245 OA
ATOM      4  C   UNL     1      -8.580  16.612  66.355  0.00  0.00    +0.377 C 
ATOM      5  O   UNL     1      -7.863  17.553  65.606  0.00  0.00    -0.245 OA
ENDBRANCH   1   4
BRANCH   1   6
ATOM      6  C   UNL     1     -10.376  15.279  65.520  0.00  0.00    +0.182 C 
ATOM      7  S   UNL     1     -11.524  14.593  66.873  0.00  0.00    -0.070 S 
BRANCH   6   8
ATOM      8  C   UNL     1     -11.499  15.640  64.513  0.00  0.00    +0.377 C 
ATOM      9  O   UNL     1     -12.503  14.675  64.390  0.00  0.00    -0.245 OA
ATOM     10  O   UNL     1     -11.594  16.698  63.925  0.00  0.00    -0.245 OA
ENDBRANCH   6   8
ENDBRANCH   1   6
TORSDOF 3
ENDMDL
