MODEL 1
REMARK VINA RESULT:      -7.2      0.000      0.000
REMARK  Name = 
REMARK  6 active torsions:
REMARK  status: ('A' for Active; 'I' for Inactive)
REMARK    1  A    between atoms: C_2  and  C_3
REMARK    2  A    between atoms: C_5  and  C_6
REMARK    3  A    between atoms: C_11  and  C_12
REMARK    4  A    between atoms: C_12  and  C_13
REMARK    5  A    between atoms: C_16  and  O_17
REMARK    6  A    between atoms: O_17  and  C_18
REMARK                            x       y       z     vdW  Elec       q    Type
REMARK                         _______ _______ _______ _____ _____    ______ ____
ROOT
ATOM      1  C   UNL     1      -9.526   9.354  67.368  0.00  0.00    +0.007 A 
ATOM      2  C   UNL     1     -10.208  10.077  66.390  0.00  0.00    -0.005 A 
ATOM      3  C   UNL     1     -10.005  11.447  66.161  0.00  0.00    -0.007 A 
ATOM      4  C   UNL     1      -8.760  11.892  66.611  0.00  0.00    +0.054 A 
ATOM      5 CL   UNL     1      -8.580  13.579  67.094  0.00  0.00    -0.083 Cl
ATOM      6  C   UNL     1      -7.880  10.957  67.158  0.00  0.00    +0.011 A 
ATOM      7  C   UNL     1      -8.402   9.853  67.855  0.00  0.00    -0.001 A 
ENDROOT
BRANCH   1  15
ATOM      8  C   UNL     1     -11.285   8.444  70.137  0.00  0.00    +0.181 C 
ATOM      9  C   UNL     1     -10.662   6.900  70.523  0.00  0.00    +0.214 C 
ATOM     10  O   UNL     1     -11.988   6.524  71.106  0.00  0.00    -0.218 OA
ATOM     11  C   UNL     1     -11.105   6.305  68.986  0.00  0.00    +0.218 C 
ATOM     12  O   UNL     1     -10.365   5.026  69.232  0.00  0.00    -0.217 OA
ATOM     13  C   UNL     1      -9.769   7.007  68.181  0.00  0.00    +0.216 C 
ATOM     14  O   UNL     1     -10.375   6.704  66.848  0.00  0.00    -0.217 OA
ATOM     15  C   UNL     1     -10.591   8.508  68.217  0.00  0.00    +0.170 C 
ATOM     16  O   UNL     1      -9.943   8.824  69.557  0.00  0.00    -0.346 OA
BRANCH   8  18
ATOM     17  O   UNL     1     -11.934   9.784  71.750  0.00  0.00    -0.218 OA
ATOM     18  C   UNL     1     -10.940   9.040  71.620  0.00  0.00    +0.214 C 
ENDBRANCH   8  18
ENDBRANCH   1  15
BRANCH   3  19
ATOM     19  C   UNL     1     -11.208  12.245  66.134  0.00  0.00    +0.053 C 
BRANCH  19  20
ATOM     20  C   UNL     1     -11.911  12.710  67.278  0.00  0.00    -0.018 A 
ATOM     21  C   UNL     1     -11.568  12.038  68.458  0.00  0.00    -0.001 A 
ATOM     22  C   UNL     1     -11.684  12.619  69.706  0.00  0.00    +0.037 A 
ATOM     23  C   UNL     1     -12.119  13.931  69.777  0.00  0.00    +0.138 A 
ATOM     24  C   UNL     1     -11.912  14.710  68.667  0.00  0.00    +0.037 A 
ATOM     25  C   UNL     1     -11.776  14.089  67.475  0.00  0.00    -0.001 A 
BRANCH  23  26
ATOM     26  O   UNL     1     -12.480  14.550  70.955  0.00  0.00    -0.476 OA
BRANCH  26  27
ATOM     27  C   UNL     1     -13.294  13.644  71.896  0.00  0.00    +0.198 C 
ATOM     28  C   UNL     1     -14.659  14.538  71.705  0.00  0.00    +0.185 C 
ATOM     29  O   UNL     1     -14.179  15.815  71.803  0.00  0.00    -0.350 OA
ATOM     30  C   UNL     1     -13.408  15.847  72.936  0.00  0.00    +0.146 C 
ATOM     31  C   UNL     1     -12.864  14.503  73.226  0.00  0.00    +0.078 C 
ENDBRANCH  26  27
ENDBRANCH  23  26
ENDBRANCH  19  20
ENDBRANCH   3  19
TORSDOF 6
ENDMDL
MODEL 2
REMARK VINA RESULT:      -6.9      2.474      6.806
REMARK  Name = 
REMARK  6 active torsions:
REMARK  status: ('A' for Active; 'I' for Inactive)
REMARK    1  A    between atoms: C_2  and  C_3
REMARK    2  A    between atoms: C_5  and  C_6
REMARK    3  A    between atoms: C_11  and  C_12
REMARK    4  A    between atoms: C_12  and  C_13
REMARK    5  A    between atoms: C_16  and  O_17
REMARK    6  A    between atoms: O_17  and  C_18
REMARK                            x       y       z     vdW  Elec       q    Type
REMARK                         _______ _______ _______ _____ _____    ______ ____
ROOT
ATOM      1  C   UNL     1     -10.771  14.735  65.549  0.00  0.00    +0.007 A 
ATOM      2  C   UNL     1      -9.967  13.736  65.000  0.00  0.00    -0.005 A 
ATOM      3  C   UNL     1     -10.474  12.657  64.260  0.00  0.00    -0.007 A 
ATOM      4  C   UNL     1     -11.726  12.925  63.702  0.00  0.00    +0.054 A 
ATOM      5 CL   UNL     1     -12.828  11.582  63.392  0.00  0.00    -0.083 Cl
ATOM      6  C   UNL     1     -12.277  14.195  63.887  0.00  0.00    +0.011 A 
ATOM      7  C   UNL     1     -11.994  14.895  65.072  0.00  0.00    -0.001 A 
ENDROOT
BRANCH   1  15
ATOM      8  C   UNL     1     -11.100  14.470  68.927  0.00  0.00    +0.181 C 
ATOM      9  C   UNL     1     -11.418  16.073  69.430  0.00  0.00    +0.214 C 
ATOM     10  O   UNL     1     -10.759  15.780  70.740  0.00  0.00    -0.218 OA
ATOM     11  C   UNL     1      -9.950  16.610  68.745  0.00  0.00    +0.218 C 
ATOM     12  O   UNL     1     -10.325  18.040  68.982  0.00  0.00    -0.217 OA
ATOM     13  C   UNL     1     -10.551  16.641  67.145  0.00  0.00    +0.216 C 
ATOM     14  O   UNL     1      -9.171  16.822  66.598  0.00  0.00    -0.217 OA
ATOM     15  C   UNL     1     -10.356  14.942  67.084  0.00  0.00    +0.170 C 
ATOM     16  O   UNL     1     -11.774  14.767  67.608  0.00  0.00    -0.346 OA
BRANCH   8  18
ATOM     17  O   UNL     1     -11.983  12.869  70.142  0.00  0.00    -0.218 OA
ATOM     18  C   UNL     1     -12.464  13.898  69.625  0.00  0.00    +0.214 C 
ENDBRANCH   8  18
ENDBRANCH   1  15
BRANCH   3  19
ATOM     19  C   UNL     1     -10.024  11.356  64.694  0.00  0.00    +0.053 C 
BRANCH  19  20
ATOM     20  C   UNL     1      -9.907  10.935  66.046  0.00  0.00    -0.018 A 
ATOM     21  C   UNL     1     -11.028  11.242  66.827  0.00  0.00    -0.001 A 
ATOM     22  C   UNL     1     -11.380  10.512  67.946  0.00  0.00    +0.037 A 
ATOM     23  C   UNL     1     -10.609   9.410  68.274  0.00  0.00    +0.138 A 
ATOM     24  C   UNL     1      -9.911   8.819  67.251  0.00  0.00    +0.037 A 
ATOM     25  C   UNL     1      -9.619   9.571  66.167  0.00  0.00    -0.001 A 
BRANCH  23  26
ATOM     26  O   UNL     1     -10.719   8.733  69.470  0.00  0.00    -0.476 OA
BRANCH  26  27
ATOM     27  C   UNL     1     -10.655   9.654  70.701  0.00  0.00    +0.198 C 
ATOM     28  C   UNL     1      -9.871   8.527  71.602  0.00  0.00    +0.185 C 
ATOM     29  O   UNL     1     -10.571   7.389  71.308  0.00  0.00    -0.350 OA
ATOM     30  C   UNL     1     -11.895   7.702  71.476  0.00  0.00    +0.146 C 
ATOM     31  C   UNL     1     -12.114   9.148  71.256  0.00  0.00    +0.078 C 
ENDBRANCH  26  27
ENDBRANCH  23  26
ENDBRANCH  19  20
ENDBRANCH   3  19
TORSDOF 6
ENDMDL
MODEL 3
REMARK VINA RESULT:      -6.9      4.051      8.066
REMARK  Name = 
REMARK  6 active torsions:
REMARK  status: ('A' for Active; 'I' for Inactive)
REMARK    1  A    between atoms: C_2  and  C_3
REMARK    2  A    between atoms: C_5  and  C_6
REMARK    3  A    between atoms: C_11  and  C_12
REMARK    4  A    between atoms: C_12  and  C_13
REMARK    5  A    between atoms: C_16  and  O_17
REMARK    6  A    between atoms: O_17  and  C_18
REMARK                            x       y       z     vdW  Elec       q    Type
REMARK                         _______ _______ _______ _____ _____    ______ ____
ROOT
ATOM      1  C   UNL     1      -9.146  15.340  66.400  0.00  0.00    +0.007 A 
ATOM      2  C   UNL     1      -9.497  14.148  67.032  0.00  0.00    -0.005 A 
ATOM      3  C   UNL     1     -10.744  13.525  66.867  0.00  0.00    -0.007 A 
ATOM      4  C   UNL     1     -11.380  13.894  65.680  0.00  0.00    +0.054 A 
ATOM      5 CL   UNL     1     -13.142  13.850  65.606  0.00  0.00    -0.083 Cl
ATOM      6  C   UNL     1     -10.710  14.754  64.808  0.00  0.00    +0.011 A 
ATOM      7  C   UNL     1      -9.837  15.720  65.338  0.00  0.00    -0.001 A 
ENDROOT
BRANCH   1  15
ATOM      8  C   UNL     1      -8.994  18.150  68.315  0.00  0.00    +0.181 C 
ATOM      9  C   UNL     1      -7.664  19.008  67.671  0.00  0.00    +0.214 C 
ATOM     10  O   UNL     1      -7.406  19.600  69.020  0.00  0.00    -0.218 OA
ATOM     11  C   UNL     1      -6.624  17.692  67.986  0.00  0.00    +0.218 C 
ATOM     12  O   UNL     1      -5.513  18.344  67.224  0.00  0.00    -0.217 OA
ATOM     13  C   UNL     1      -7.129  16.793  66.621  0.00  0.00    +0.216 C 
ATOM     14  O   UNL     1      -6.419  15.576  67.124  0.00  0.00    -0.217 OA
ATOM     15  C   UNL     1      -8.531  16.339  67.493  0.00  0.00    +0.170 C 
ATOM     16  O   UNL     1      -9.256  17.561  66.949  0.00  0.00    -0.346 OA
BRANCH   8  18
ATOM     17  O   UNL     1     -11.014  18.765  67.714  0.00  0.00    -0.218 OA
ATOM     18  C   UNL     1     -10.013  19.409  68.093  0.00  0.00    +0.214 C 
ENDBRANCH   8  18
ENDBRANCH   1  15
BRANCH   3  19
ATOM     19  C   UNL     1     -11.421  13.182  68.096  0.00  0.00    +0.053 C 
BRANCH  19  20
ATOM     20  C   UNL     1     -11.010  12.170  69.006  0.00  0.00    -0.018 A 
ATOM     21  C   UNL     1     -11.931  11.932  70.032  0.00  0.00    -0.001 A 
ATOM     22  C   UNL     1     -12.028  10.716  70.680  0.00  0.00    +0.037 A 
ATOM     23  C   UNL     1     -11.204   9.686  70.259  0.00  0.00    +0.138 A 
ATOM     24  C   UNL     1     -10.749   9.749  68.966  0.00  0.00    +0.037 A 
ATOM     25  C   UNL     1     -10.703  10.962  68.370  0.00  0.00    -0.001 A 
BRANCH  23  26
ATOM     26  O   UNL     1     -11.049   8.504  70.952  0.00  0.00    -0.476 OA
BRANCH  26  27
ATOM     27  C   UNL     1     -12.006   8.368  72.150  0.00  0.00    +0.198 C 
ATOM     28  C   UNL     1     -10.901   7.540  73.039  0.00  0.00    +0.185 C 
ATOM     29  O   UNL     1     -10.402   6.656  72.123  0.00  0.00    -0.350 OA
ATOM     30  C   UNL     1     -11.488   6.067  71.530  0.00  0.00    +0.146 C 
ATOM     31  C   UNL     1     -12.655   6.975  71.576  0.00  0.00    +0.078 C 
ENDBRANCH  26  27
ENDBRANCH  23  26
ENDBRANCH  19  20
ENDBRANCH   3  19
TORSDOF 6
ENDMDL
MODEL 4
REMARK VINA RESULT:      -6.7      3.112      5.486
REMARK  Name = 
REMARK  6 active torsions:
REMARK  status: ('A' for Active; 'I' for Inactive)
REMARK    1  A    between atoms: C_2  and  C_3
REMARK    2  A    between atoms: C_5  and  C_6
REMARK    3  A    between atoms: C_11  and  C_12
REMARK    4  A    between atoms: C_12  and  C_13
REMARK    5  A    between atoms: C_16  and  O_17
REMARK    6  A    between atoms: O_17  and  C_18
REMARK                            x       y       z     vdW  Elec       q    Type
REMARK                         _______ _______ _______ _____ _____    ______ ____
ROOT
ATOM      1  C   UNL     1     -10.444   7.505  71.143  0.00  0.00    +0.007 A 
ATOM      2  C   UNL     1     -10.802   8.721  71.723  0.00  0.00    -0.005 A 
ATOM      3  C   UNL     1     -12.132   9.151  71.859  0.00  0.00    -0.007 A 
ATOM      4  C   UNL     1     -13.045   8.096  71.842  0.00  0.00    +0.054 A 
ATOM      5 CL   UNL     1     -14.688   8.397  71.275  0.00  0.00    -0.083 Cl
ATOM      6  C   UNL     1     -12.551   6.792  71.756  0.00  0.00    +0.011 A 
ATOM      7  C   UNL     1     -11.363   6.558  71.043  0.00  0.00    -0.001 A 
ENDROOT
BRANCH   1  15
ATOM      8  C   UNL     1      -9.090   7.783  68.033  0.00  0.00    +0.181 C 
ATOM      9  C   UNL     1      -8.042   6.437  67.925  0.00  0.00    +0.214 C 
ATOM     10  O   UNL     1      -7.158   7.214  67.001  0.00  0.00    -0.218 OA
ATOM     11  C   UNL     1      -7.173   6.968  69.295  0.00  0.00    +0.218 C 
ATOM     12  O   UNL     1      -6.400   5.686  69.342  0.00  0.00    -0.217 OA
ATOM     13  C   UNL     1      -8.330   6.396  70.417  0.00  0.00    +0.216 C 
ATOM     14  O   UNL     1      -7.664   7.142  71.529  0.00  0.00    -0.217 OA
ATOM     15  C   UNL     1      -9.288   7.771  70.065  0.00  0.00    +0.170 C 
ATOM     16  O   UNL     1      -9.985   6.993  68.958  0.00  0.00    -0.346 OA
BRANCH   8  18
ATOM     17  O   UNL     1     -10.185   8.494  66.267  0.00  0.00    -0.218 OA
ATOM     18  C   UNL     1      -9.910   7.350  66.686  0.00  0.00    +0.214 C 
ENDBRANCH   8  18
ENDBRANCH   1  15
BRANCH   3  19
ATOM     19  C   UNL     1     -12.396  10.481  71.362  0.00  0.00    +0.053 C 
BRANCH  19  20
ATOM     20  C   UNL     1     -11.693  11.117  70.303  0.00  0.00    -0.018 A 
ATOM     21  C   UNL     1     -11.802  10.449  69.077  0.00  0.00    -0.001 A 
ATOM     22  C   UNL     1     -11.686  11.096  67.863  0.00  0.00    +0.037 A 
ATOM     23  C   UNL     1     -11.497  12.468  67.871  0.00  0.00    +0.138 A 
ATOM     24  C   UNL     1     -11.940  13.145  68.978  0.00  0.00    +0.037 A 
ATOM     25  C   UNL     1     -12.063  12.456  70.134  0.00  0.00    -0.001 A 
BRANCH  23  26
ATOM     26  O   UNL     1     -11.154  13.195  66.750  0.00  0.00    -0.476 OA
BRANCH  26  27
ATOM     27  C   UNL     1     -11.859  12.712  65.469  0.00  0.00    +0.198 C 
ATOM     28  C   UNL     1     -10.558  13.060  64.529  0.00  0.00    +0.185 C 
ATOM     29  O   UNL     1     -10.188  14.290  64.997  0.00  0.00    -0.350 OA
ATOM     30  C   UNL     1     -11.329  15.050  65.019  0.00  0.00    +0.146 C 
ATOM     31  C   UNL     1     -12.519  14.186  65.181  0.00  0.00    +0.078 C 
ENDBRANCH  26  27
ENDBRANCH  23  26
ENDBRANCH  19  20
ENDBRANCH   3  19
TORSDOF 6
ENDMDL
MODEL 5
REMARK VINA RESULT:      -6.7      3.484      5.419
REMARK  Name = 
REMARK  6 active torsions:
REMARK  status: ('A' for Active; 'I' for Inactive)
REMARK    1  A    between atoms: C_2  and  C_3
REMARK    2  A    between atoms: C_5  and  C_6
REMARK    3  A    between atoms: C_11  and  C_12
REMARK    4  A    between atoms: C_12  and  C_13
REMARK    5  A    between atoms: C_16  and  O_17
REMARK    6  A    between atoms: O_17  and  C_18
REMARK                            x       y       z     vdW  Elec       q    Type
REMARK                         _______ _______ _______ _____ _____    ______ ____
ROOT
ATOM      1  C   UNL     1      -9.494  10.452  64.317  0.00  0.00    +0.007 A 
ATOM      2  C   UNL     1      -9.659  10.989  65.594  0.00  0.00    -0.005 A 
ATOM      3  C   UNL     1     -10.321  12.202  65.843  0.00  0.00    -0.007 A 
ATOM      4  C   UNL     1     -11.208  12.552  64.823  0.00  0.00    +0.054 A 
ATOM      5 CL   UNL     1     -11.565  14.258  64.550  0.00  0.00    -0.083 Cl
ATOM      6  C   UNL     1     -11.371  11.670  63.753  0.00  0.00    +0.011 A 
ATOM      7  C   UNL     1     -10.280  10.883  63.345  0.00  0.00    -0.001 A 
ENDROOT
BRANCH   1  15
ATOM      8  C   UNL     1      -6.461  10.345  62.776  0.00  0.00    +0.181 C 
ATOM      9  C   UNL     1      -6.334   8.725  62.244  0.00  0.00    +0.214 C 
ATOM     10  O   UNL     1      -4.847   8.809  62.384  0.00  0.00    -0.218 OA
ATOM     11  C   UNL     1      -6.509   8.156  63.844  0.00  0.00    +0.218 C 
ATOM     12  O   UNL     1      -6.625   6.743  63.363  0.00  0.00    -0.217 OA
ATOM     13  C   UNL     1      -8.207   8.361  63.873  0.00  0.00    +0.216 C 
ATOM     14  O   UNL     1      -8.238   8.136  65.351  0.00  0.00    -0.217 OA
ATOM     15  C   UNL     1      -7.958  10.035  64.131  0.00  0.00    +0.170 C 
ATOM     16  O   UNL     1      -7.962  10.260  62.626  0.00  0.00    -0.346 OA
BRANCH   8  18
ATOM     17  O   UNL     1      -7.098  11.835  61.295  0.00  0.00    -0.218 OA
ATOM     18  C   UNL     1      -6.230  10.939  61.270  0.00  0.00    +0.214 C 
ENDBRANCH   8  18
ENDBRANCH   1  15
BRANCH   3  19
ATOM     19  C   UNL     1      -9.587  13.140  66.658  0.00  0.00    +0.053 C 
BRANCH  19  20
ATOM     20  C   UNL     1     -10.043  13.694  67.885  0.00  0.00    -0.018 A 
ATOM     21  C   UNL     1     -10.645  14.950  67.743  0.00  0.00    -0.001 A 
ATOM     22  C   UNL     1     -11.595  15.425  68.626  0.00  0.00    +0.037 A 
ATOM     23  C   UNL     1     -11.990  14.599  69.665  0.00  0.00    +0.138 A 
ATOM     24  C   UNL     1     -11.834  13.250  69.474  0.00  0.00    +0.037 A 
ATOM     25  C   UNL     1     -10.910  12.841  68.577  0.00  0.00    -0.001 A 
BRANCH  23  26
ATOM     26  O   UNL     1     -12.759  15.027  70.726  0.00  0.00    -0.476 OA
BRANCH  26  27
ATOM     27  C   UNL     1     -13.307  13.875  71.588  0.00  0.00    +0.198 C 
ATOM     28  C   UNL     1     -14.789  14.571  71.717  0.00  0.00    +0.185 C 
ATOM     29  O   UNL     1     -14.470  15.875  71.976  0.00  0.00    -0.350 OA
ATOM     30  C   UNL     1     -13.556  15.850  72.997  0.00  0.00    +0.146 C 
ATOM     31  C   UNL     1     -12.806  14.575  72.985  0.00  0.00    +0.078 C 
ENDBRANCH  26  27
ENDBRANCH  23  26
ENDBRANCH  19  20
ENDBRANCH   3  19
TORSDOF 6
ENDMDL
MODEL 6
REMARK VINA RESULT:      -6.7      2.883      6.211
REMARK  Name = 
REMARK  6 active torsions:
REMARK  status: ('A' for Active; 'I' for Inactive)
REMARK    1  A    between atoms: C_2  and  C_3
REMARK    2  A    between atoms: C_5  and  C_6
REMARK    3  A    between atoms: C_11  and  C_12
REMARK    4  A    between atoms: C_12  and  C_13
REMARK    5  A    between atoms: C_16  and  O_17
REMARK    6  A    between atoms: O_17  and  C_18
REMARK                            x       y       z     vdW  Elec       q    Type
REMARK                         _______ _______ _______ _____ _____    ______ ____
ROOT
ATOM      1  C   UNL     1     -10.906  13.152  66.081  0.00  0.00    +0.007 A 
ATOM      2  C   UNL     1     -11.901  13.090  67.057  0.00  0.00    -0.005 A 
ATOM      3  C   UNL     1     -11.838  13.792  68.271  0.00  0.00    -0.007 A 
ATOM      4  C   UNL     1     -10.996  14.905  68.208  0.00  0.00    +0.054 A 
ATOM      5 CL   UNL     1     -10.212  15.466  69.685  0.00  0.00    -0.083 Cl
ATOM      6  C   UNL     1     -10.389  15.210  66.988  0.00  0.00    +0.011 A 
ATOM      7  C   UNL     1     -10.054  14.164  66.112  0.00  0.00    -0.001 A 
ENDROOT
BRANCH   1  15
ATOM      8  C   UNL     1      -9.047  10.303  65.982  0.00  0.00    +0.181 C 
ATOM      9  C   UNL     1      -8.412  10.288  64.395  0.00  0.00    +0.214 C 
ATOM     10  O   UNL     1      -8.397   8.792  64.428  0.00  0.00    -0.218 OA
ATOM     11  C   UNL     1      -9.986  10.314  63.735  0.00  0.00    +0.218 C 
ATOM     12  O   UNL     1      -9.439  10.529  62.357  0.00  0.00    -0.217 OA
ATOM     13  C   UNL     1     -10.208  11.992  63.986  0.00  0.00    +0.216 C 
ATOM     14  O   UNL     1     -11.665  11.876  63.672  0.00  0.00    -0.217 OA
ATOM     15  C   UNL     1     -10.533  11.659  65.633  0.00  0.00    +0.170 C 
ATOM     16  O   UNL     1      -9.053  11.813  65.950  0.00  0.00    -0.346 OA
BRANCH   8  18
ATOM     17  O   UNL     1      -7.689  11.126  67.499  0.00  0.00    -0.218 OA
ATOM     18  C   UNL     1      -7.561  10.210  66.660  0.00  0.00    +0.214 C 
ENDBRANCH   8  18
ENDBRANCH   1  15
BRANCH   3  19
ATOM     19  C   UNL     1     -12.062  12.991  69.450  0.00  0.00    +0.053 C 
BRANCH  19  20
ATOM     20  C   UNL     1     -11.926  11.578  69.522  0.00  0.00    -0.018 A 
ATOM     21  C   UNL     1     -10.611  11.132  69.343  0.00  0.00    -0.001 A 
ATOM     22  C   UNL     1     -10.148   9.944  69.875  0.00  0.00    +0.037 A 
ATOM     23  C   UNL     1     -11.016   9.194  70.649  0.00  0.00    +0.138 A 
ATOM     24  C   UNL     1     -12.043   9.871  71.256  0.00  0.00    +0.037 A 
ATOM     25  C   UNL     1     -12.438  11.043  70.710  0.00  0.00    -0.001 A 
BRANCH  23  26
ATOM     26  O   UNL     1     -10.752   7.903  71.054  0.00  0.00    -0.476 OA
BRANCH  26  27
ATOM     27  C   UNL     1     -11.961   6.960  70.916  0.00  0.00    +0.198 C 
ATOM     28  C   UNL     1     -11.320   5.858  71.951  0.00  0.00    +0.185 C 
ATOM     29  O   UNL     1     -10.020   5.796  71.532  0.00  0.00    -0.350 OA
ATOM     30  C   UNL     1     -10.064   5.618  70.174  0.00  0.00    +0.146 C 
ATOM     31  C   UNL     1     -11.312   6.188  69.621  0.00  0.00    +0.078 C 
ENDBRANCH  26  27
ENDBRANCH  23  26
ENDBRANCH  19  20
ENDBRANCH   3  19
TORSDOF 6
ENDMDL
MODEL 7
REMARK VINA RESULT:      -6.6      5.097      7.386
REMARK  Name = 
REMARK  6 active torsions:
REMARK  status: ('A' for Active; 'I' for Inactive)
REMARK    1  A    between atoms: C_2  and  C_3
REMARK    2  A    between atoms: C_5  and  C_6
REMARK    3  A    between atoms: C_11  and  C_12
REMARK    4  A    between atoms: C_12  and  C_13
REMARK    5  A    between atoms: C_16  and  O_17
REMARK    6  A    between atoms: O_17  and  C_18
REMARK                            x       y       z     vdW  Elec       q    Type
REMARK                         _______ _______ _______ _____ _____    ______ ____
ROOT
ATOM      1  C   UNL     1     -10.533  12.916  68.373  0.00  0.00    +0.007 A 
ATOM      2  C   UNL     1      -9.975  14.114  68.818  0.00  0.00    -0.005 A 
ATOM      3  C   UNL     1     -10.684  15.064  69.571  0.00  0.00    -0.007 A 
ATOM      4  C   UNL     1     -11.774  14.513  70.248  0.00  0.00    +0.054 A 
ATOM      5 CL   UNL     1     -13.157  15.542  70.619  0.00  0.00    -0.083 Cl
ATOM      6  C   UNL     1     -11.989  13.137  70.149  0.00  0.00    +0.011 A 
ATOM      7  C   UNL     1     -11.631  12.473  68.964  0.00  0.00    -0.001 A 
ENDROOT
BRANCH   1  15
ATOM      8  C   UNL     1     -11.229  12.726  65.046  0.00  0.00    +0.181 C 
ATOM      9  C   UNL     1     -10.937  11.085  64.664  0.00  0.00    +0.214 C 
ATOM     10  O   UNL     1     -10.560  11.488  63.274  0.00  0.00    -0.218 OA
ATOM     11  C   UNL     1      -9.322  11.218  65.202  0.00  0.00    +0.218 C 
ATOM     12  O   UNL     1      -9.127   9.738  65.083  0.00  0.00    -0.217 OA
ATOM     13  C   UNL     1      -9.724  11.104  66.861  0.00  0.00    +0.216 C 
ATOM     14  O   UNL     1      -8.341  11.518  67.254  0.00  0.00    -0.217 OA
ATOM     15  C   UNL     1     -10.205  12.746  66.813  0.00  0.00    +0.170 C 
ATOM     16  O   UNL     1     -11.618  12.315  66.447  0.00  0.00    -0.346 OA
BRANCH   8  18
ATOM     17  O   UNL     1     -13.201  13.690  65.042  0.00  0.00    -0.218 OA
ATOM     18  C   UNL     1     -12.762  12.665  64.481  0.00  0.00    +0.214 C 
ENDBRANCH   8  18
ENDBRANCH   1  15
BRANCH   3  19
ATOM     19  C   UNL     1     -10.623  16.414  69.063  0.00  0.00    +0.053 C 
BRANCH  19  20
ATOM     20  C   UNL     1      -9.720  16.876  68.067  0.00  0.00    -0.018 A 
ATOM     21  C   UNL     1     -10.316  17.713  67.116  0.00  0.00    -0.001 A 
ATOM     22  C   UNL     1      -9.607  18.670  66.416  0.00  0.00    +0.037 A 
ATOM     23  C   UNL     1      -8.263  18.827  66.706  0.00  0.00    +0.138 A 
ATOM     24  C   UNL     1      -7.851  18.434  67.954  0.00  0.00    +0.037 A 
ATOM     25  C   UNL     1      -8.599  17.516  68.607  0.00  0.00    -0.001 A 
BRANCH  23  26
ATOM     26  O   UNL     1      -7.403  19.585  65.940  0.00  0.00    -0.476 OA
BRANCH  26  27
ATOM     27  C   UNL     1      -5.927  19.439  66.352  0.00  0.00    +0.198 C 
ATOM     28  C   UNL     1      -5.500  20.843  65.616  0.00  0.00    +0.185 C 
ATOM     29  O   UNL     1      -6.162  20.752  64.423  0.00  0.00    -0.350 OA
ATOM     30  C   UNL     1      -5.865  19.514  63.915  0.00  0.00    +0.146 C 
ATOM     31  C   UNL     1      -5.555  18.570  65.011  0.00  0.00    +0.078 C 
ENDBRANCH  26  27
ENDBRANCH  23  26
ENDBRANCH  19  20
ENDBRANCH   3  19
TORSDOF 6
ENDMDL
MODEL 8
REMARK VINA RESULT:      -6.5      3.693      7.671
REMARK  Name = 
REMARK  6 active torsions:
REMARK  status: ('A' for Active; 'I' for Inactive)
REMARK    1  A    between atoms: C_2  and  C_3
REMARK    2  A    between atoms: C_5  and  C_6
REMARK    3  A    between atoms: C_11  and  C_12
REMARK    4  A    between atoms: C_12  and  C_13
REMARK    5  A    between atoms: C_16  and  O_17
REMARK    6  A    between atoms: O_17  and  C_18
REMARK                            x       y       z     vdW  Elec       q    Type
REMARK                         _______ _______ _______ _____ _____    ______ ____
ROOT
ATOM      1  C   UNL     1      -9.667  11.673  67.279  0.00  0.00    +0.007 A 
ATOM      2  C   UNL     1      -9.962  11.330  68.598  0.00  0.00    -0.005 A 
ATOM      3  C   UNL     1      -9.956  10.010  69.073  0.00  0.00    -0.007 A 
ATOM      4  C   UNL     1      -9.167   9.159  68.296  0.00  0.00    +0.054 A 
ATOM      5 CL   UNL     1      -9.567   7.442  68.235  0.00  0.00    -0.083 Cl
ATOM      6  C   UNL     1      -8.463   9.706  67.221  0.00  0.00    +0.011 A 
ATOM      7  C   UNL     1      -9.011  10.800  66.531  0.00  0.00    -0.001 A 
ENDROOT
BRANCH   1  15
ATOM      8  C   UNL     1     -11.939  12.884  65.052  0.00  0.00    +0.181 C 
ATOM      9  C   UNL     1     -11.264  14.373  64.553  0.00  0.00    +0.214 C 
ATOM     10  O   UNL     1     -12.641  14.909  64.326  0.00  0.00    -0.218 OA
ATOM     11  C   UNL     1     -11.247  14.938  66.163  0.00  0.00    +0.218 C 
ATOM     12  O   UNL     1     -10.454  16.145  65.766  0.00  0.00    -0.217 OA
ATOM     13  C   UNL     1      -9.841  14.067  66.597  0.00  0.00    +0.216 C 
ATOM     14  O   UNL     1     -10.065  14.368  68.045  0.00  0.00    -0.217 OA
ATOM     15  C   UNL     1     -10.808  12.661  66.738  0.00  0.00    +0.170 C 
ATOM     16  O   UNL     1     -10.546  12.343  65.273  0.00  0.00    -0.346 OA
BRANCH   8  18
ATOM     17  O   UNL     1     -13.206  11.890  63.560  0.00  0.00    -0.218 OA
ATOM     18  C   UNL     1     -12.037  12.325  63.519  0.00  0.00    +0.214 C 
ENDBRANCH   8  18
ENDBRANCH   1  15
BRANCH   3  19
ATOM     19  C   UNL     1     -11.149   9.612  69.783  0.00  0.00    +0.053 C 
BRANCH  19  20
ATOM     20  C   UNL     1     -11.184   9.089  71.103  0.00  0.00    -0.018 A 
ATOM     21  C   UNL     1     -11.809   7.839  71.194  0.00  0.00    -0.001 A 
ATOM     22  C   UNL     1     -11.510   6.927  72.188  0.00  0.00    +0.037 A 
ATOM     23  C   UNL     1     -10.522   7.257  73.100  0.00  0.00    +0.138 A 
ATOM     24  C   UNL     1      -9.581   8.166  72.687  0.00  0.00    +0.037 A 
ATOM     25  C   UNL     1      -9.916   9.016  71.691  0.00  0.00    -0.001 A 
BRANCH  23  26
ATOM     26  O   UNL     1     -10.280   6.540  74.253  0.00  0.00    -0.476 OA
BRANCH  26  27
ATOM     27  C   UNL     1      -8.939   5.786  74.234  0.00  0.00    +0.198 C 
ATOM     28  C   UNL     1      -9.625   4.392  74.764  0.00  0.00    +0.185 C 
ATOM     29  O   UNL     1     -10.444   4.839  75.764  0.00  0.00    -0.350 OA
ATOM     30  C   UNL     1      -9.672   5.649  76.556  0.00  0.00    +0.146 C 
ATOM     31  C   UNL     1      -8.570   6.241  75.767  0.00  0.00    +0.078 C 
ENDBRANCH  26  27
ENDBRANCH  23  26
ENDBRANCH  19  20
ENDBRANCH   3  19
TORSDOF 6
ENDMDL
MODEL 9
REMARK VINA RESULT:      -6.5      3.315      5.654
REMARK  Name = 
REMARK  6 active torsions:
REMARK  status: ('A' for Active; 'I' for Inactive)
REMARK    1  A    between atoms: C_2  and  C_3
REMARK    2  A    between atoms: C_5  and  C_6
REMARK    3  A    between atoms: C_11  and  C_12
REMARK    4  A    between atoms: C_12  and  C_13
REMARK    5  A    between atoms: C_16  and  O_17
REMARK    6  A    between atoms: O_17  and  C_18
REMARK                            x       y       z     vdW  Elec       q    Type
REMARK                         _______ _______ _______ _____ _____    ______ ____
ROOT
ATOM      1  C   UNL     1     -10.247   6.970  71.018  0.00  0.00    +0.007 A 
ATOM      2  C   UNL     1     -10.366   8.224  71.615  0.00  0.00    -0.005 A 
ATOM      3  C   UNL     1     -11.597   8.869  71.820  0.00  0.00    -0.007 A 
ATOM      4  C   UNL     1     -12.673   7.980  71.852  0.00  0.00    +0.054 A 
ATOM      5 CL   UNL     1     -14.270   8.555  71.371  0.00  0.00    -0.083 Cl
ATOM      6  C   UNL     1     -12.409   6.613  71.741  0.00  0.00    +0.011 A 
ATOM      7  C   UNL     1     -11.314   6.190  70.967  0.00  0.00    -0.001 A 
ENDROOT
BRANCH   1  15
ATOM      8  C   UNL     1      -9.021   6.973  67.843  0.00  0.00    +0.181 C 
ATOM      9  C   UNL     1      -8.163   5.498  67.738  0.00  0.00    +0.214 C 
ATOM     10  O   UNL     1      -7.232   6.123  66.748  0.00  0.00    -0.218 OA
ATOM     11  C   UNL     1      -7.167   5.951  69.048  0.00  0.00    +0.218 C 
ATOM     12  O   UNL     1      -6.566   4.581  69.108  0.00  0.00    -0.217 OA
ATOM     13  C   UNL     1      -8.333   5.571  70.240  0.00  0.00    +0.216 C 
ATOM     14  O   UNL     1      -7.521   6.257  71.294  0.00  0.00    -0.217 OA
ATOM     15  C   UNL     1      -9.120   7.048  69.881  0.00  0.00    +0.170 C 
ATOM     16  O   UNL     1      -9.965   6.336  68.836  0.00  0.00    -0.346 OA
BRANCH   8  18
ATOM     17  O   UNL     1     -11.068   6.865  67.056  0.00  0.00    -0.218 OA
ATOM     18  C   UNL     1      -9.956   6.610  66.550  0.00  0.00    +0.214 C 
ENDBRANCH   8  18
ENDBRANCH   1  15
BRANCH   3  19
ATOM     19  C   UNL     1     -11.661  10.227  71.336  0.00  0.00    +0.053 C 
BRANCH  19  20
ATOM     20  C   UNL     1     -12.031  10.615  70.020  0.00  0.00    -0.018 A 
ATOM     21  C   UNL     1     -11.910  11.990  69.786  0.00  0.00    -0.001 A 
ATOM     22  C   UNL     1     -11.691  12.515  68.527  0.00  0.00    +0.037 A 
ATOM     23  C   UNL     1     -11.546  11.633  67.469  0.00  0.00    +0.138 A 
ATOM     24  C   UNL     1     -11.117  10.367  67.776  0.00  0.00    +0.037 A 
ATOM     25  C   UNL     1     -11.331   9.914  69.031  0.00  0.00    -0.001 A 
BRANCH  23  26
ATOM     26  O   UNL     1     -11.539  12.026  66.147  0.00  0.00    -0.476 OA
BRANCH  26  27
ATOM     27  C   UNL     1     -11.250  13.525  65.956  0.00  0.00    +0.198 C 
ATOM     28  C   UNL     1     -12.734  13.811  65.314  0.00  0.00    +0.185 C 
ATOM     29  O   UNL     1     -12.878  12.759  64.452  0.00  0.00    -0.350 OA
ATOM     30  C   UNL     1     -11.729  12.715  63.706  0.00  0.00    +0.146 C 
ATOM     31  C   UNL     1     -10.600  13.293  64.468  0.00  0.00    +0.078 C 
ENDBRANCH  26  27
ENDBRANCH  23  26
ENDBRANCH  19  20
ENDBRANCH   3  19
TORSDOF 6
ENDMDL
