MODEL 1
REMARK VINA RESULT:      -6.1      0.000      0.000
REMARK  Name = 
REMARK  12 active torsions:
REMARK  status: ('A' for Active; 'I' for Inactive)
REMARK    1  A    between atoms: N_2  and  C_3
REMARK    2  A    between atoms: C_6  and  C_7
REMARK    3  A    between atoms: C_8  and  C_9
REMARK    4  A    between atoms: C_12  and  O_13
REMARK    5  A    between atoms: O_13  and  C_14
REMARK    6  A    between atoms: C_14  and  C_15
REMARK    7  A    between atoms: C_15  and  O_16
REMARK    8  A    between atoms: O_16  and  C_17
REMARK    9  A    between atoms: C_17  and  C_18
REMARK   10  A    between atoms: C_18  and  O_19
REMARK   11  A    between atoms: O_19  and  C_20
REMARK   12  A    between atoms: C_20  and  C_21
REMARK                            x       y       z     vdW  Elec       q    Type
REMARK                         _______ _______ _______ _____ _____    ______ ____
ROOT
ATOM      1  C   UNL     1     -10.740  13.009  67.011  0.00  0.00    +0.019 A 
ATOM      2  C   UNL     1      -9.447  13.349  66.629  0.00  0.00    +0.102 A 
ATOM      3  N   UNL     1      -9.259  14.617  66.250  0.00  0.00    -0.210 NA
ATOM      4  C   UNL     1     -10.249  15.276  65.604  0.00  0.00    +0.225 A 
ATOM      5  C   UNL     1     -11.446  14.608  65.445  0.00  0.00    +0.058 A 
ATOM      6  C   UNL     1     -11.726  13.427  66.123  0.00  0.00    +0.006 A 
ENDROOT
BRANCH   1   8
ATOM      7  C   UNL     1     -11.975  11.752  68.719  0.00  0.00    +0.000 C 
ATOM      8  C   UNL     1     -11.046  11.832  67.797  0.00  0.00    +0.002 C 
BRANCH   7  12
ATOM      9  C   UNL     1     -12.408   8.931  71.646  0.00  0.00    +0.065 A 
ATOM     10  C   UNL     1     -11.174   9.015  71.014  0.00  0.00    +0.016 A 
ATOM     11  C   UNL     1     -10.866  10.100  70.201  0.00  0.00    +0.001 A 
ATOM     12  C   UNL     1     -11.753  11.161  70.046  0.00  0.00    +0.000 A 
ATOM     13  C   UNL     1     -12.707  11.250  71.054  0.00  0.00    +0.001 A 
ATOM     14  C   UNL     1     -13.029  10.157  71.852  0.00  0.00    +0.016 A 
BRANCH   9  16
ATOM     15  C   UNL     1     -14.622   7.735  71.738  0.00  0.00    +0.135 C 
ATOM     16  N   UNL     1     -13.163   7.712  71.674  0.00  0.00    -0.236 NA
ENDBRANCH   9  16
ENDBRANCH   7  12
ENDBRANCH   1   8
BRANCH   4  17
ATOM     17  O   UNL     1     -10.162  16.666  65.486  0.00  0.00    -0.457 OA
BRANCH  17  18
ATOM     18  C   UNL     1      -9.426  17.344  66.489  0.00  0.00    +0.239 C 
BRANCH  18  19
ATOM     19  C   UNL     1     -10.369  18.258  67.232  0.00  0.00    +0.189 C 
BRANCH  19  20
ATOM     20  O   UNL     1     -11.154  17.528  68.135  0.00  0.00    -0.347 OA
BRANCH  20  21
ATOM     21  C   UNL     1     -10.323  16.836  69.003  0.00  0.00    +0.174 C 
BRANCH  21  22
ATOM     22  C   UNL     1     -11.077  15.640  69.567  0.00  0.00    +0.174 C 
BRANCH  22  23
ATOM     23  O   UNL     1     -12.364  16.007  69.929  0.00  0.00    -0.348 OA
BRANCH  23  24
ATOM     24  C   UNL     1     -12.581  15.728  71.287  0.00  0.00    +0.180 C 
BRANCH  24  25
ATOM     25  C   UNL     1     -13.757  14.775  71.461  0.00  0.00    +0.225 C 
ATOM     26  F   UNL     1     -14.944  15.459  71.284  0.00  0.00    -0.232 F 
ENDBRANCH  24  25
ENDBRANCH  23  24
ENDBRANCH  22  23
ENDBRANCH  21  22
ENDBRANCH  20  21
ENDBRANCH  19  20
ENDBRANCH  18  19
ENDBRANCH  17  18
ENDBRANCH   4  17
TORSDOF 12
ENDMDL
MODEL 2
REMARK VINA RESULT:      -5.7      1.099      1.280
REMARK  Name = 
REMARK  12 active torsions:
REMARK  status: ('A' for Active; 'I' for Inactive)
REMARK    1  A    between atoms: N_2  and  C_3
REMARK    2  A    between atoms: C_6  and  C_7
REMARK    3  A    between atoms: C_8  and  C_9
REMARK    4  A    between atoms: C_12  and  O_13
REMARK    5  A    between atoms: O_13  and  C_14
REMARK    6  A    between atoms: C_14  and  C_15
REMARK    7  A    between atoms: C_15  and  O_16
REMARK    8  A    between atoms: O_16  and  C_17
REMARK    9  A    between atoms: C_17  and  C_18
REMARK   10  A    between atoms: C_18  and  O_19
REMARK   11  A    between atoms: O_19  and  C_20
REMARK   12  A    between atoms: C_20  and  C_21
REMARK                            x       y       z     vdW  Elec       q    Type
REMARK                         _______ _______ _______ _____ _____    ______ ____
ROOT
ATOM      1  C   UNL     1     -10.967  12.700  66.948  0.00  0.00    +0.019 A 
ATOM      2  C   UNL     1      -9.702  12.961  66.432  0.00  0.00    +0.102 A 
ATOM      3  N   UNL     1      -9.464  14.223  66.064  0.00  0.00    -0.210 NA
ATOM      4  C   UNL     1     -10.468  14.969  65.548  0.00  0.00    +0.225 A 
ATOM      5  C   UNL     1     -11.721  14.392  65.508  0.00  0.00    +0.058 A 
ATOM      6  C   UNL     1     -12.011  13.214  66.185  0.00  0.00    +0.006 A 
ENDROOT
BRANCH   1   8
ATOM      7  C   UNL     1     -11.931  11.515  68.868  0.00  0.00    +0.000 C 
ATOM      8  C   UNL     1     -11.270  11.523  67.736  0.00  0.00    +0.002 C 
BRANCH   7  12
ATOM      9  C   UNL     1     -11.323   8.188  71.166  0.00  0.00    +0.065 A 
ATOM     10  C   UNL     1     -10.205   8.799  70.612  0.00  0.00    +0.016 A 
ATOM     11  C   UNL     1     -10.297  10.063  70.041  0.00  0.00    +0.001 A 
ATOM     12  C   UNL     1     -11.489  10.780  70.061  0.00  0.00    +0.000 A 
ATOM     13  C   UNL     1     -12.390  10.347  71.028  0.00  0.00    +0.001 A 
ATOM     14  C   UNL     1     -12.309   9.075  71.583  0.00  0.00    +0.016 A 
BRANCH   9  16
ATOM     15  C   UNL     1     -11.373   6.200  69.622  0.00  0.00    +0.135 C 
ATOM     16  N   UNL     1     -11.630   6.809  70.925  0.00  0.00    -0.236 NA
ENDBRANCH   9  16
ENDBRANCH   7  12
ENDBRANCH   1   8
BRANCH   4  17
ATOM     17  O   UNL     1     -10.293  16.353  65.452  0.00  0.00    -0.457 OA
BRANCH  17  18
ATOM     18  C   UNL     1      -9.527  16.969  66.473  0.00  0.00    +0.239 C 
BRANCH  18  19
ATOM     19  C   UNL     1     -10.456  17.345  67.600  0.00  0.00    +0.189 C 
BRANCH  19  20
ATOM     20  O   UNL     1      -9.895  17.003  68.838  0.00  0.00    -0.347 OA
BRANCH  20  21
ATOM     21  C   UNL     1     -10.363  15.755  69.219  0.00  0.00    +0.174 C 
BRANCH  21  22
ATOM     22  C   UNL     1     -11.869  15.701  69.004  0.00  0.00    +0.174 C 
BRANCH  22  23
ATOM     23  O   UNL     1     -12.537  15.967  70.191  0.00  0.00    -0.348 OA
BRANCH  23  24
ATOM     24  C   UNL     1     -12.942  14.768  70.795  0.00  0.00    +0.180 C 
BRANCH  24  25
ATOM     25  C   UNL     1     -13.827  15.044  72.005  0.00  0.00    +0.225 C 
ATOM     26  F   UNL     1     -13.682  14.031  72.932  0.00  0.00    -0.232 F 
ENDBRANCH  24  25
ENDBRANCH  23  24
ENDBRANCH  22  23
ENDBRANCH  21  22
ENDBRANCH  20  21
ENDBRANCH  19  20
ENDBRANCH  18  19
ENDBRANCH  17  18
ENDBRANCH   4  17
TORSDOF 12
ENDMDL
MODEL 3
REMARK VINA RESULT:      -5.7      1.475      2.005
REMARK  Name = 
REMARK  12 active torsions:
REMARK  status: ('A' for Active; 'I' for Inactive)
REMARK    1  A    between atoms: N_2  and  C_3
REMARK    2  A    between atoms: C_6  and  C_7
REMARK    3  A    between atoms: C_8  and  C_9
REMARK    4  A    between atoms: C_12  and  O_13
REMARK    5  A    between atoms: O_13  and  C_14
REMARK    6  A    between atoms: C_14  and  C_15
REMARK    7  A    between atoms: C_15  and  O_16
REMARK    8  A    between atoms: O_16  and  C_17
REMARK    9  A    between atoms: C_17  and  C_18
REMARK   10  A    between atoms: C_18  and  O_19
REMARK   11  A    between atoms: O_19  and  C_20
REMARK   12  A    between atoms: C_20  and  C_21
REMARK                            x       y       z     vdW  Elec       q    Type
REMARK                         _______ _______ _______ _____ _____    ______ ____
ROOT
ATOM      1  C   UNL     1     -11.063  13.585  67.094  0.00  0.00    +0.019 A 
ATOM      2  C   UNL     1      -9.676  13.590  67.000  0.00  0.00    +0.102 A 
ATOM      3  N   UNL     1      -9.110  14.759  66.685  0.00  0.00    -0.210 NA
ATOM      4  C   UNL     1      -9.752  15.609  65.849  0.00  0.00    +0.225 A 
ATOM      5  C   UNL     1     -11.014  15.241  65.431  0.00  0.00    +0.058 A 
ATOM      6  C   UNL     1     -11.709  14.191  66.020  0.00  0.00    +0.006 A 
ENDROOT
BRANCH   1   8
ATOM      7  C   UNL     1     -11.599  12.161  69.018  0.00  0.00    +0.000 C 
ATOM      8  C   UNL     1     -11.803  12.549  67.782  0.00  0.00    +0.002 C 
BRANCH   7  12
ATOM      9  C   UNL     1     -10.004   8.969  71.013  0.00  0.00    +0.065 A 
ATOM     10  C   UNL     1     -11.233   9.449  71.449  0.00  0.00    +0.016 A 
ATOM     11  C   UNL     1     -11.956  10.351  70.677  0.00  0.00    +0.001 A 
ATOM     12  C   UNL     1     -11.506  10.751  69.422  0.00  0.00    +0.000 A 
ATOM     13  C   UNL     1     -10.572   9.890  68.857  0.00  0.00    +0.001 A 
ATOM     14  C   UNL     1      -9.835   9.002  69.634  0.00  0.00    +0.016 A 
BRANCH   9  16
ATOM     15  C   UNL     1      -8.939   8.088  73.118  0.00  0.00    +0.135 C 
ATOM     16  N   UNL     1      -8.874   8.877  71.890  0.00  0.00    -0.236 NA
ENDBRANCH   9  16
ENDBRANCH   7  12
ENDBRANCH   1   8
BRANCH   4  17
ATOM     17  O   UNL     1      -9.307  16.932  65.768  0.00  0.00    -0.457 OA
BRANCH  17  18
ATOM     18  C   UNL     1     -10.206  17.933  66.215  0.00  0.00    +0.239 C 
BRANCH  18  19
ATOM     19  C   UNL     1     -10.101  18.026  67.717  0.00  0.00    +0.189 C 
BRANCH  19  20
ATOM     20  O   UNL     1     -11.194  17.395  68.328  0.00  0.00    -0.347 OA
BRANCH  20  21
ATOM     21  C   UNL     1     -10.734  16.585  69.355  0.00  0.00    +0.174 C 
BRANCH  21  22
ATOM     22  C   UNL     1     -11.909  15.827  69.956  0.00  0.00    +0.174 C 
BRANCH  22  23
ATOM     23  O   UNL     1     -11.743  15.684  71.325  0.00  0.00    -0.348 OA
BRANCH  23  24
ATOM     24  C   UNL     1     -12.992  15.567  71.953  0.00  0.00    +0.180 C 
BRANCH  24  25
ATOM     25  C   UNL     1     -13.437  14.110  72.003  0.00  0.00    +0.225 C 
ATOM     26  F   UNL     1     -14.815  14.043  72.041  0.00  0.00    -0.232 F 
ENDBRANCH  24  25
ENDBRANCH  23  24
ENDBRANCH  22  23
ENDBRANCH  21  22
ENDBRANCH  20  21
ENDBRANCH  19  20
ENDBRANCH  18  19
ENDBRANCH  17  18
ENDBRANCH   4  17
TORSDOF 12
ENDMDL
MODEL 4
REMARK VINA RESULT:      -5.7      2.402      3.018
REMARK  Name = 
REMARK  12 active torsions:
REMARK  status: ('A' for Active; 'I' for Inactive)
REMARK    1  A    between atoms: N_2  and  C_3
REMARK    2  A    between atoms: C_6  and  C_7
REMARK    3  A    between atoms: C_8  and  C_9
REMARK    4  A    between atoms: C_12  and  O_13
REMARK    5  A    between atoms: O_13  and  C_14
REMARK    6  A    between atoms: C_14  and  C_15
REMARK    7  A    between atoms: C_15  and  O_16
REMARK    8  A    between atoms: O_16  and  C_17
REMARK    9  A    between atoms: C_17  and  C_18
REMARK   10  A    between atoms: C_18  and  O_19
REMARK   11  A    between atoms: O_19  and  C_20
REMARK   12  A    between atoms: C_20  and  C_21
REMARK                            x       y       z     vdW  Elec       q    Type
REMARK                         _______ _______ _______ _____ _____    ______ ____
ROOT
ATOM      1  C   UNL     1     -10.783  12.443  66.946  0.00  0.00    +0.019 A 
ATOM      2  C   UNL     1     -10.322  12.348  65.637  0.00  0.00    +0.102 A 
ATOM      3  N   UNL     1     -10.153  13.503  64.986  0.00  0.00    -0.210 NA
ATOM      4  C   UNL     1     -10.988  14.539  65.235  0.00  0.00    +0.225 A 
ATOM      5  C   UNL     1     -11.931  14.360  66.225  0.00  0.00    +0.058 A 
ATOM      6  C   UNL     1     -11.882  13.283  67.103  0.00  0.00    +0.006 A 
ENDROOT
BRANCH   1   8
ATOM      7  C   UNL     1     -11.655  10.779  68.524  0.00  0.00    +0.000 C 
ATOM      8  C   UNL     1     -10.659  11.367  67.906  0.00  0.00    +0.002 C 
BRANCH   7  12
ATOM      9  C   UNL     1     -13.226   9.358  72.020  0.00  0.00    +0.065 A 
ATOM     10  C   UNL     1     -12.139   8.679  71.482  0.00  0.00    +0.016 A 
ATOM     11  C   UNL     1     -11.394   9.238  70.450  0.00  0.00    +0.001 A 
ATOM     12  C   UNL     1     -11.671  10.515  69.969  0.00  0.00    +0.000 A 
ATOM     13  C   UNL     1     -12.408  11.301  70.848  0.00  0.00    +0.001 A 
ATOM     14  C   UNL     1     -13.170  10.738  71.866  0.00  0.00    +0.016 A 
BRANCH   9  16
ATOM     15  C   UNL     1     -14.742   7.364  71.769  0.00  0.00    +0.135 C 
ATOM     16  N   UNL     1     -14.469   8.699  72.294  0.00  0.00    -0.236 NA
ENDBRANCH   9  16
ENDBRANCH   7  12
ENDBRANCH   1   8
BRANCH   4  17
ATOM     17  O   UNL     1     -10.625  15.813  64.787  0.00  0.00    -0.457 OA
BRANCH  17  18
ATOM     18  C   UNL     1     -10.379  16.791  65.783  0.00  0.00    +0.239 C 
BRANCH  18  19
ATOM     19  C   UNL     1      -8.980  16.588  66.310  0.00  0.00    +0.189 C 
BRANCH  19  20
ATOM     20  O   UNL     1      -9.013  16.029  67.595  0.00  0.00    -0.347 OA
BRANCH  20  21
ATOM     21  C   UNL     1      -9.163  17.044  68.528  0.00  0.00    +0.174 C 
BRANCH  21  22
ATOM     22  C   UNL     1      -7.951  17.963  68.462  0.00  0.00    +0.174 C 
BRANCH  22  23
ATOM     23  O   UNL     1      -8.323  19.272  68.733  0.00  0.00    -0.348 OA
BRANCH  23  24
ATOM     24  C   UNL     1      -9.692  19.445  68.485  0.00  0.00    +0.180 C 
BRANCH  24  25
ATOM     25  C   UNL     1      -9.916  20.477  67.387  0.00  0.00    +0.225 C 
ATOM     26  F   UNL     1     -10.710  19.939  66.393  0.00  0.00    -0.232 F 
ENDBRANCH  24  25
ENDBRANCH  23  24
ENDBRANCH  22  23
ENDBRANCH  21  22
ENDBRANCH  20  21
ENDBRANCH  19  20
ENDBRANCH  18  19
ENDBRANCH  17  18
ENDBRANCH   4  17
TORSDOF 12
ENDMDL
MODEL 5
REMARK VINA RESULT:      -5.6      2.857      7.642
REMARK  Name = 
REMARK  12 active torsions:
REMARK  status: ('A' for Active; 'I' for Inactive)
REMARK    1  A    between atoms: N_2  and  C_3
REMARK    2  A    between atoms: C_6  and  C_7
REMARK    3  A    between atoms: C_8  and  C_9
REMARK    4  A    between atoms: C_12  and  O_13
REMARK    5  A    between atoms: O_13  and  C_14
REMARK    6  A    between atoms: C_14  and  C_15
REMARK    7  A    between atoms: C_15  and  O_16
REMARK    8  A    between atoms: O_16  and  C_17
REMARK    9  A    between atoms: C_17  and  C_18
REMARK   10  A    between atoms: C_18  and  O_19
REMARK   11  A    between atoms: O_19  and  C_20
REMARK   12  A    between atoms: C_20  and  C_21
REMARK                            x       y       z     vdW  Elec       q    Type
REMARK                         _______ _______ _______ _____ _____    ______ ____
ROOT
ATOM      1  C   UNL     1     -10.928  14.373  66.394  0.00  0.00    +0.019 A 
ATOM      2  C   UNL     1     -11.903  13.644  65.722  0.00  0.00    +0.102 A 
ATOM      3  N   UNL     1     -12.225  12.461  66.252  0.00  0.00    -0.210 NA
ATOM      4  C   UNL     1     -11.272  11.724  66.872  0.00  0.00    +0.225 A 
ATOM      5  C   UNL     1     -10.021  12.292  66.989  0.00  0.00    +0.058 A 
ATOM      6  C   UNL     1      -9.793  13.637  66.724  0.00  0.00    +0.006 A 
ENDROOT
BRANCH   1   8
ATOM      7  C   UNL     1      -9.672  16.474  66.562  0.00  0.00    +0.000 C 
ATOM      8  C   UNL     1     -10.734  15.794  66.202  0.00  0.00    +0.002 C 
BRANCH   7  12
ATOM      9  C   UNL     1      -8.400  20.224  67.578  0.00  0.00    +0.065 A 
ATOM     10  C   UNL     1      -9.550  20.124  66.805  0.00  0.00    +0.016 A 
ATOM     11  C   UNL     1     -10.187  18.899  66.636  0.00  0.00    +0.001 A 
ATOM     12  C   UNL     1      -9.731  17.754  67.282  0.00  0.00    +0.000 A 
ATOM     13  C   UNL     1      -8.922  18.011  68.383  0.00  0.00    +0.001 A 
ATOM     14  C   UNL     1      -8.270  19.229  68.540  0.00  0.00    +0.016 A 
BRANCH   9  16
ATOM     15  C   UNL     1      -6.462  20.547  66.004  0.00  0.00    +0.135 C 
ATOM     16  N   UNL     1      -7.261  20.981  67.147  0.00  0.00    -0.236 NA
ENDBRANCH   9  16
ENDBRANCH   7  12
ENDBRANCH   1   8
BRANCH   4  17
ATOM     17  O   UNL     1     -11.672  10.652  67.675  0.00  0.00    -0.457 OA
BRANCH  17  18
ATOM     18  C   UNL     1     -11.195  10.646  69.009  0.00  0.00    +0.239 C 
BRANCH  18  19
ATOM     19  C   UNL     1     -12.365  10.885  69.931  0.00  0.00    +0.189 C 
BRANCH  19  20
ATOM     20  O   UNL     1     -12.173  12.055  70.679  0.00  0.00    -0.347 OA
BRANCH  20  21
ATOM     21  C   UNL     1     -13.094  12.086  71.715  0.00  0.00    +0.174 C 
BRANCH  21  22
ATOM     22  C   UNL     1     -13.375  13.535  72.088  0.00  0.00    +0.174 C 
BRANCH  22  23
ATOM     23  O   UNL     1     -13.458  14.320  70.947  0.00  0.00    -0.348 OA
BRANCH  23  24
ATOM     24  C   UNL     1     -12.594  15.420  71.055  0.00  0.00    +0.180 C 
BRANCH  24  25
ATOM     25  C   UNL     1     -11.935  15.724  69.715  0.00  0.00    +0.225 C 
ATOM     26  F   UNL     1     -10.607  15.351  69.751  0.00  0.00    -0.232 F 
ENDBRANCH  24  25
ENDBRANCH  23  24
ENDBRANCH  22  23
ENDBRANCH  21  22
ENDBRANCH  20  21
ENDBRANCH  19  20
ENDBRANCH  18  19
ENDBRANCH  17  18
ENDBRANCH   4  17
TORSDOF 12
ENDMDL
MODEL 6
REMARK VINA RESULT:      -5.6      2.197      3.923
REMARK  Name = 
REMARK  12 active torsions:
REMARK  status: ('A' for Active; 'I' for Inactive)
REMARK    1  A    between atoms: N_2  and  C_3
REMARK    2  A    between atoms: C_6  and  C_7
REMARK    3  A    between atoms: C_8  and  C_9
REMARK    4  A    between atoms: C_12  and  O_13
REMARK    5  A    between atoms: O_13  and  C_14
REMARK    6  A    between atoms: C_14  and  C_15
REMARK    7  A    between atoms: C_15  and  O_16
REMARK    8  A    between atoms: O_16  and  C_17
REMARK    9  A    between atoms: C_17  and  C_18
REMARK   10  A    between atoms: C_18  and  O_19
REMARK   11  A    between atoms: O_19  and  C_20
REMARK   12  A    between atoms: C_20  and  C_21
REMARK                            x       y       z     vdW  Elec       q    Type
REMARK                         _______ _______ _______ _____ _____    ______ ____
ROOT
ATOM      1  C   UNL     1     -11.798  13.023  69.521  0.00  0.00    +0.019 A 
ATOM      2  C   UNL     1     -12.106  13.689  68.339  0.00  0.00    +0.102 A 
ATOM      3  N   UNL     1     -11.731  14.969  68.269  0.00  0.00    -0.210 NA
ATOM      4  C   UNL     1     -11.747  15.733  69.386  0.00  0.00    +0.225 A 
ATOM      5  C   UNL     1     -12.078  15.105  70.569  0.00  0.00    +0.058 A 
ATOM      6  C   UNL     1     -12.147  13.720  70.674  0.00  0.00    +0.006 A 
ENDROOT
BRANCH   1   8
ATOM      7  C   UNL     1     -12.460  10.869  70.492  0.00  0.00    +0.000 C 
ATOM      8  C   UNL     1     -11.773  11.580  69.630  0.00  0.00    +0.002 C 
BRANCH   7  12
ATOM      9  C   UNL     1     -11.167   7.054  71.191  0.00  0.00    +0.065 A 
ATOM     10  C   UNL     1     -10.202   8.047  71.072  0.00  0.00    +0.016 A 
ATOM     11  C   UNL     1     -10.561   9.391  71.092  0.00  0.00    +0.001 A 
ATOM     12  C   UNL     1     -11.881   9.783  71.294  0.00  0.00    +0.000 A 
ATOM     13  C   UNL     1     -12.676   8.805  71.882  0.00  0.00    +0.001 A 
ATOM     14  C   UNL     1     -12.326   7.460  71.844  0.00  0.00    +0.016 A 
BRANCH   9  16
ATOM     15  C   UNL     1     -10.998   6.012  68.906  0.00  0.00    +0.135 C 
ATOM     16  N   UNL     1     -11.165   5.893  70.352  0.00  0.00    -0.236 NA
ENDBRANCH   9  16
ENDBRANCH   7  12
ENDBRANCH   1   8
BRANCH   4  17
ATOM     17  O   UNL     1     -11.077  16.960  69.368  0.00  0.00    -0.457 OA
BRANCH  17  18
ATOM     18  C   UNL     1      -9.947  17.055  68.518  0.00  0.00    +0.239 C 
BRANCH  18  19
ATOM     19  C   UNL     1     -10.107  18.279  67.653  0.00  0.00    +0.189 C 
BRANCH  19  20
ATOM     20  O   UNL     1     -10.563  17.925  66.375  0.00  0.00    -0.347 OA
BRANCH  20  21
ATOM     21  C   UNL     1     -10.023  16.697  66.026  0.00  0.00    +0.174 C 
BRANCH  21  22
ATOM     22  C   UNL     1     -10.840  16.098  64.889  0.00  0.00    +0.174 C 
BRANCH  22  23
ATOM     23  O   UNL     1     -10.932  14.722  65.033  0.00  0.00    -0.348 OA
BRANCH  23  24
ATOM     24  C   UNL     1     -12.188  14.275  64.597  0.00  0.00    +0.180 C 
BRANCH  24  25
ATOM     25  C   UNL     1     -12.168  12.773  64.339  0.00  0.00    +0.225 C 
ATOM     26  F   UNL     1     -12.089  12.094  65.539  0.00  0.00    -0.232 F 
ENDBRANCH  24  25
ENDBRANCH  23  24
ENDBRANCH  22  23
ENDBRANCH  21  22
ENDBRANCH  20  21
ENDBRANCH  19  20
ENDBRANCH  18  19
ENDBRANCH  17  18
ENDBRANCH   4  17
TORSDOF 12
ENDMDL
MODEL 7
REMARK VINA RESULT:      -5.5      3.119      4.192
REMARK  Name = 
REMARK  12 active torsions:
REMARK  status: ('A' for Active; 'I' for Inactive)
REMARK    1  A    between atoms: N_2  and  C_3
REMARK    2  A    between atoms: C_6  and  C_7
REMARK    3  A    between atoms: C_8  and  C_9
REMARK    4  A    between atoms: C_12  and  O_13
REMARK    5  A    between atoms: O_13  and  C_14
REMARK    6  A    between atoms: C_14  and  C_15
REMARK    7  A    between atoms: C_15  and  O_16
REMARK    8  A    between atoms: O_16  and  C_17
REMARK    9  A    between atoms: C_17  and  C_18
REMARK   10  A    between atoms: C_18  and  O_19
REMARK   11  A    between atoms: O_19  and  C_20
REMARK   12  A    between atoms: C_20  and  C_21
REMARK                            x       y       z     vdW  Elec       q    Type
REMARK                         _______ _______ _______ _____ _____    ______ ____
ROOT
ATOM      1  C   UNL     1      -9.252   9.370  66.938  0.00  0.00    +0.019 A 
ATOM      2  C   UNL     1      -8.480  10.526  66.914  0.00  0.00    +0.102 A 
ATOM      3  N   UNL     1      -8.857  11.470  66.048  0.00  0.00    -0.210 NA
ATOM      4  C   UNL     1      -9.401  11.111  64.862  0.00  0.00    +0.225 A 
ATOM      5  C   UNL     1      -9.610   9.763  64.652  0.00  0.00    +0.058 A 
ATOM      6  C   UNL     1      -9.513   8.833  65.681  0.00  0.00    +0.006 A 
ENDROOT
BRANCH   1   8
ATOM      7  C   UNL     1     -10.287   7.824  68.538  0.00  0.00    +0.000 C 
ATOM      8  C   UNL     1      -9.237   8.434  68.042  0.00  0.00    +0.002 C 
BRANCH   7  12
ATOM      9  C   UNL     1     -12.557   8.251  71.912  0.00  0.00    +0.065 A 
ATOM     10  C   UNL     1     -12.337   6.961  71.445  0.00  0.00    +0.016 A 
ATOM     11  C   UNL     1     -11.377   6.713  70.470  0.00  0.00    +0.001 A 
ATOM     12  C   UNL     1     -10.568   7.733  69.978  0.00  0.00    +0.000 A 
ATOM     13  C   UNL     1     -10.496   8.846  70.808  0.00  0.00    +0.001 A 
ATOM     14  C   UNL     1     -11.468   9.103  71.770  0.00  0.00    +0.016 A 
BRANCH   9  16
ATOM     15  C   UNL     1     -15.052   7.920  71.933  0.00  0.00    +0.135 C 
ATOM     16  N   UNL     1     -13.879   8.773  72.097  0.00  0.00    -0.236 NA
ENDBRANCH   9  16
ENDBRANCH   7  12
ENDBRANCH   1   8
BRANCH   4  17
ATOM     17  O   UNL     1     -10.062  12.083  64.105  0.00  0.00    -0.457 OA
BRANCH  17  18
ATOM     18  C   UNL     1     -11.331  11.729  63.585  0.00  0.00    +0.239 C 
BRANCH  18  19
ATOM     19  C   UNL     1     -12.236  12.932  63.685  0.00  0.00    +0.189 C 
BRANCH  19  20
ATOM     20  O   UNL     1     -12.915  12.938  64.911  0.00  0.00    -0.347 OA
BRANCH  20  21
ATOM     21  C   UNL     1     -12.375  13.923  65.724  0.00  0.00    +0.174 C 
BRANCH  21  22
ATOM     22  C   UNL     1     -12.030  13.319  67.077  0.00  0.00    +0.174 C 
BRANCH  22  23
ATOM     23  O   UNL     1     -12.074  11.934  67.014  0.00  0.00    -0.348 OA
BRANCH  23  24
ATOM     24  C   UNL     1     -11.861  11.386  68.287  0.00  0.00    +0.180 C 
BRANCH  24  25
ATOM     25  C   UNL     1     -11.363  12.451  69.258  0.00  0.00    +0.225 C 
ATOM     26  F   UNL     1     -12.087  12.388  70.432  0.00  0.00    -0.232 F 
ENDBRANCH  24  25
ENDBRANCH  23  24
ENDBRANCH  22  23
ENDBRANCH  21  22
ENDBRANCH  20  21
ENDBRANCH  19  20
ENDBRANCH  18  19
ENDBRANCH  17  18
ENDBRANCH   4  17
TORSDOF 12
ENDMDL
MODEL 8
REMARK VINA RESULT:      -5.4      3.434      5.198
REMARK  Name = 
REMARK  12 active torsions:
REMARK  status: ('A' for Active; 'I' for Inactive)
REMARK    1  A    between atoms: N_2  and  C_3
REMARK    2  A    between atoms: C_6  and  C_7
REMARK    3  A    between atoms: C_8  and  C_9
REMARK    4  A    between atoms: C_12  and  O_13
REMARK    5  A    between atoms: O_13  and  C_14
REMARK    6  A    between atoms: C_14  and  C_15
REMARK    7  A    between atoms: C_15  and  O_16
REMARK    8  A    between atoms: O_16  and  C_17
REMARK    9  A    between atoms: C_17  and  C_18
REMARK   10  A    between atoms: C_18  and  O_19
REMARK   11  A    between atoms: O_19  and  C_20
REMARK   12  A    between atoms: C_20  and  C_21
REMARK                            x       y       z     vdW  Elec       q    Type
REMARK                         _______ _______ _______ _____ _____    ______ ____
ROOT
ATOM      1  C   UNL     1     -11.642  12.138  68.996  0.00  0.00    +0.019 A 
ATOM      2  C   UNL     1     -12.041  13.409  69.393  0.00  0.00    +0.102 A 
ATOM      3  N   UNL     1     -11.826  14.395  68.518  0.00  0.00    -0.210 NA
ATOM      4  C   UNL     1     -10.736  14.353  67.717  0.00  0.00    +0.225 A 
ATOM      5  C   UNL     1      -9.941  13.228  67.800  0.00  0.00    +0.058 A 
ATOM      6  C   UNL     1     -10.353  12.083  68.472  0.00  0.00    +0.006 A 
ENDROOT
BRANCH   1   8
ATOM      7  C   UNL     1     -12.120  10.677  70.908  0.00  0.00    +0.000 C 
ATOM      8  C   UNL     1     -12.129  10.927  69.621  0.00  0.00    +0.002 C 
BRANCH   7  12
ATOM      9  C   UNL     1     -11.061   6.729  70.831  0.00  0.00    +0.065 A 
ATOM     10  C   UNL     1     -10.045   7.663  70.996  0.00  0.00    +0.016 A 
ATOM     11  C   UNL     1     -10.342   8.990  71.289  0.00  0.00    +0.001 A 
ATOM     12  C   UNL     1     -11.654   9.409  71.486  0.00  0.00    +0.000 A 
ATOM     13  C   UNL     1     -12.536   8.378  71.792  0.00  0.00    +0.001 A 
ATOM     14  C   UNL     1     -12.246   7.054  71.480  0.00  0.00    +0.016 A 
BRANCH   9  16
ATOM     15  C   UNL     1     -10.055   4.709  69.716  0.00  0.00    +0.135 C 
ATOM     16  N   UNL     1     -11.048   5.779  69.758  0.00  0.00    -0.236 NA
ENDBRANCH   9  16
ENDBRANCH   7  12
ENDBRANCH   1   8
BRANCH   4  17
ATOM     17  O   UNL     1     -10.680  15.212  66.615  0.00  0.00    -0.457 OA
BRANCH  17  18
ATOM     18  C   UNL     1     -10.699  14.605  65.335  0.00  0.00    +0.239 C 
BRANCH  18  19
ATOM     19  C   UNL     1     -12.021  14.920  64.681  0.00  0.00    +0.189 C 
BRANCH  19  20
ATOM     20  O   UNL     1     -12.964  13.924  64.970  0.00  0.00    -0.347 OA
BRANCH  20  21
ATOM     21  C   UNL     1     -12.337  12.688  64.960  0.00  0.00    +0.174 C 
BRANCH  21  22
ATOM     22  C   UNL     1     -12.422  12.098  63.559  0.00  0.00    +0.174 C 
BRANCH  22  23
ATOM     23  O   UNL     1     -11.153  11.956  63.016  0.00  0.00    -0.348 OA
BRANCH  23  24
ATOM     24  C   UNL     1     -10.414  11.021  63.755  0.00  0.00    +0.180 C 
BRANCH  24  25
ATOM     25  C   UNL     1      -9.401  10.309  62.866  0.00  0.00    +0.225 C 
ATOM     26  F   UNL     1      -8.700  11.236  62.121  0.00  0.00    -0.232 F 
ENDBRANCH  24  25
ENDBRANCH  23  24
ENDBRANCH  22  23
ENDBRANCH  21  22
ENDBRANCH  20  21
ENDBRANCH  19  20
ENDBRANCH  18  19
ENDBRANCH  17  18
ENDBRANCH   4  17
TORSDOF 12
ENDMDL
MODEL 9
REMARK VINA RESULT:      -5.4      3.574      5.473
REMARK  Name = 
REMARK  12 active torsions:
REMARK  status: ('A' for Active; 'I' for Inactive)
REMARK    1  A    between atoms: N_2  and  C_3
REMARK    2  A    between atoms: C_6  and  C_7
REMARK    3  A    between atoms: C_8  and  C_9
REMARK    4  A    between atoms: C_12  and  O_13
REMARK    5  A    between atoms: O_13  and  C_14
REMARK    6  A    between atoms: C_14  and  C_15
REMARK    7  A    between atoms: C_15  and  O_16
REMARK    8  A    between atoms: O_16  and  C_17
REMARK    9  A    between atoms: C_17  and  C_18
REMARK   10  A    between atoms: C_18  and  O_19
REMARK   11  A    between atoms: O_19  and  C_20
REMARK   12  A    between atoms: C_20  and  C_21
REMARK                            x       y       z     vdW  Elec       q    Type
REMARK                         _______ _______ _______ _____ _____    ______ ____
ROOT
ATOM      1  C   UNL     1     -11.567  14.170  66.768  0.00  0.00    +0.019 A 
ATOM      2  C   UNL     1     -12.695  13.945  65.986  0.00  0.00    +0.102 A 
ATOM      3  N   UNL     1     -12.528  13.151  64.925  0.00  0.00    -0.210 NA
ATOM      4  C   UNL     1     -11.351  13.166  64.256  0.00  0.00    +0.225 A 
ATOM      5  C   UNL     1     -10.348  13.960  64.773  0.00  0.00    +0.058 A 
ATOM      6  C   UNL     1     -10.432  14.520  66.042  0.00  0.00    +0.006 A 
ENDROOT
BRANCH   1   8
ATOM      7  C   UNL     1     -11.810  13.929  69.197  0.00  0.00    +0.000 C 
ATOM      8  C   UNL     1     -11.635  14.665  68.126  0.00  0.00    +0.002 C 
BRANCH   7  12
ATOM      9  C   UNL     1     -12.956  14.868  73.008  0.00  0.00    +0.065 A 
ATOM     10  C   UNL     1     -13.034  15.870  72.048  0.00  0.00    +0.016 A 
ATOM     11  C   UNL     1     -12.912  15.569  70.696  0.00  0.00    +0.001 A 
ATOM     12  C   UNL     1     -12.772  14.256  70.259  0.00  0.00    +0.000 A 
ATOM     13  C   UNL     1     -13.189  13.306  71.184  0.00  0.00    +0.001 A 
ATOM     14  C   UNL     1     -13.291  13.603  72.539  0.00  0.00    +0.016 A 
BRANCH   9  16
ATOM     15  C   UNL     1     -12.441  16.144  75.116  0.00  0.00    +0.135 C 
ATOM     16  N   UNL     1     -12.189  15.028  74.208  0.00  0.00    -0.236 NA
ENDBRANCH   9  16
ENDBRANCH   7  12
ENDBRANCH   1   8
BRANCH   4  17
ATOM     17  O   UNL     1     -11.080  12.134  63.353  0.00  0.00    -0.457 OA
BRANCH  17  18
ATOM     18  C   UNL     1      -9.916  11.364  63.600  0.00  0.00    +0.239 C 
BRANCH  18  19
ATOM     19  C   UNL     1     -10.204  10.425  64.745  0.00  0.00    +0.189 C 
BRANCH  19  20
ATOM     20  O   UNL     1      -9.482  10.802  65.886  0.00  0.00    -0.347 OA
BRANCH  20  21
ATOM     21  C   UNL     1     -10.203  10.451  67.016  0.00  0.00    +0.174 C 
BRANCH  21  22
ATOM     22  C   UNL     1      -9.538  11.062  68.241  0.00  0.00    +0.174 C 
BRANCH  22  23
ATOM     23  O   UNL     1      -9.826  10.312  69.372  0.00  0.00    -0.348 OA
BRANCH  23  24
ATOM     24  C   UNL     1     -11.172  10.476  69.730  0.00  0.00    +0.180 C 
BRANCH  24  25
ATOM     25  C   UNL     1     -11.508   9.646  70.963  0.00  0.00    +0.225 C 
ATOM     26  F   UNL     1     -11.596   8.311  70.619  0.00  0.00    -0.232 F 
ENDBRANCH  24  25
ENDBRANCH  23  24
ENDBRANCH  22  23
ENDBRANCH  21  22
ENDBRANCH  20  21
ENDBRANCH  19  20
ENDBRANCH  18  19
ENDBRANCH  17  18
ENDBRANCH   4  17
TORSDOF 12
ENDMDL
