MODEL 1
REMARK VINA RESULT:      -4.8      0.000      0.000
REMARK  Name = 
REMARK  3 active torsions:
REMARK  status: ('A' for Active; 'I' for Inactive)
REMARK    1  A    between atoms: C_3  and  C_4
REMARK    2  A    between atoms: N_6  and  C_7
REMARK    3  A    between atoms: N_6  and  C_9
REMARK                            x       y       z     vdW  Elec       q    Type
REMARK                         _______ _______ _______ _____ _____    ______ ____
ROOT
ATOM      1  C   UNL     1     -11.065  15.986  65.124  0.00  0.00    +0.253 C 
ATOM      2  N   UNL     1     -10.272  16.327  66.270  0.00  0.00    -0.255 N 
ATOM      3  O   UNL     1     -11.245  16.858  64.220  0.00  0.00    -0.270 OA
ENDROOT
BRANCH   2   4
ATOM      4  C   UNL     1     -10.402  15.601  67.499  0.00  0.00    +0.050 A 
ATOM      5  C   UNL     1      -9.381  14.696  67.767  0.00  0.00    -0.008 A 
ATOM      6  C   UNL     1      -8.096  14.782  67.005  0.00  0.00    +0.032 C 
ATOM      7  C   UNL     1      -9.594  13.556  68.533  0.00  0.00    -0.003 A 
ATOM      8  C   UNL     1     -10.896  13.087  68.671  0.00  0.00    -0.000 A 
ATOM      9  C   UNL     1     -11.856  14.091  68.731  0.00  0.00    +0.001 A 
ATOM     10  C   UNL     1     -11.660  15.220  67.945  0.00  0.00    +0.015 A 
ENDBRANCH   2   4
BRANCH   1  13
ATOM     11  C   UNL     1     -12.152  12.509  65.228  0.00  0.00    +0.031 C 
ATOM     12  C   UNL     1     -12.043  13.819  64.509  0.00  0.00    -0.021 C 
ATOM     13  C   UNL     1     -10.999  14.611  64.604  0.00  0.00    +0.054 C 
ENDBRANCH   1  13
BRANCH   2  14
ATOM     14  C   UNL     1      -9.833  17.713  66.429  0.00  0.00    +0.099 C 
ATOM     15  C   UNL     1     -10.521  18.395  67.574  0.00  0.00    +0.024 C 
ENDBRANCH   2  14
TORSDOF 3
ENDMDL
MODEL 2
REMARK VINA RESULT:      -4.5      1.879      3.604
REMARK  Name = 
REMARK  3 active torsions:
REMARK  status: ('A' for Active; 'I' for Inactive)
REMARK    1  A    between atoms: C_3  and  C_4
REMARK    2  A    between atoms: N_6  and  C_7
REMARK    3  A    between atoms: N_6  and  C_9
REMARK                            x       y       z     vdW  Elec       q    Type
REMARK                         _______ _______ _______ _____ _____    ______ ____
ROOT
ATOM      1  C   UNL     1     -11.030  16.102  68.437  0.00  0.00    +0.253 C 
ATOM      2  N   UNL     1     -10.720  15.531  67.158  0.00  0.00    -0.255 N 
ATOM      3  O   UNL     1     -10.888  17.353  68.601  0.00  0.00    -0.270 OA
ENDROOT
BRANCH   2   4
ATOM      4  C   UNL     1     -10.413  14.136  67.029  0.00  0.00    +0.050 A 
ATOM      5  C   UNL     1     -11.426  13.351  66.491  0.00  0.00    -0.008 A 
ATOM      6  C   UNL     1     -12.567  14.003  65.774  0.00  0.00    +0.032 C 
ATOM      7  C   UNL     1     -11.558  12.004  66.808  0.00  0.00    -0.003 A 
ATOM      8  C   UNL     1     -10.963  11.540  67.976  0.00  0.00    -0.000 A 
ATOM      9  C   UNL     1      -9.755  12.158  68.280  0.00  0.00    +0.001 A 
ATOM     10  C   UNL     1      -9.630  13.510  67.989  0.00  0.00    +0.015 A 
ENDBRANCH   2   4
BRANCH   1  13
ATOM     11  C   UNL     1     -12.331  13.579  70.721  0.00  0.00    +0.031 C 
ATOM     12  C   UNL     1     -12.002  15.006  70.408  0.00  0.00    -0.021 C 
ATOM     13  C   UNL     1     -12.143  15.535  69.213  0.00  0.00    +0.054 C 
ENDBRANCH   1  13
BRANCH   2  14
ATOM     14  C   UNL     1     -10.103  16.382  66.143  0.00  0.00    +0.099 C 
ATOM     15  C   UNL     1      -8.606  16.278  66.152  0.00  0.00    +0.024 C 
ENDBRANCH   2  14
TORSDOF 3
ENDMDL
MODEL 3
REMARK VINA RESULT:      -4.5      1.231      3.900
REMARK  Name = 
REMARK  3 active torsions:
REMARK  status: ('A' for Active; 'I' for Inactive)
REMARK    1  A    between atoms: C_3  and  C_4
REMARK    2  A    between atoms: N_6  and  C_7
REMARK    3  A    between atoms: N_6  and  C_9
REMARK                            x       y       z     vdW  Elec       q    Type
REMARK                         _______ _______ _______ _____ _____    ______ ____
ROOT
ATOM      1  C   UNL     1     -10.569  16.778  65.436  0.00  0.00    +0.253 C 
ATOM      2  N   UNL     1     -10.585  15.475  66.035  0.00  0.00    -0.255 N 
ATOM      3  O   UNL     1     -11.156  16.951  64.324  0.00  0.00    -0.270 OA
ENDROOT
BRANCH   2   4
ATOM      4  C   UNL     1      -9.598  15.096  67.003  0.00  0.00    +0.050 A 
ATOM      5  C   UNL     1      -9.977  15.249  68.331  0.00  0.00    -0.008 A 
ATOM      6  C   UNL     1     -11.423  15.432  68.673  0.00  0.00    +0.032 C 
ATOM      7  C   UNL     1      -9.048  15.493  69.336  0.00  0.00    -0.003 A 
ATOM      8  C   UNL     1      -7.809  16.013  68.978  0.00  0.00    -0.000 A 
ATOM      9  C   UNL     1      -7.331  15.545  67.758  0.00  0.00    +0.001 A 
ATOM     10  C   UNL     1      -8.254  15.326  66.743  0.00  0.00    +0.015 A 
ENDBRANCH   2   4
BRANCH   1  13
ATOM     11  C   UNL     1      -8.901  19.169  67.623  0.00  0.00    +0.031 C 
ATOM     12  C   UNL     1      -9.666  18.862  66.373  0.00  0.00    -0.021 C 
ATOM     13  C   UNL     1     -10.619  17.959  66.312  0.00  0.00    +0.054 C 
ENDBRANCH   1  13
BRANCH   2  14
ATOM     14  C   UNL     1     -11.141  14.361  65.269  0.00  0.00    +0.099 C 
ATOM     15  C   UNL     1     -12.545  14.034  65.685  0.00  0.00    +0.024 C 
ENDBRANCH   2  14
TORSDOF 3
ENDMDL
MODEL 4
REMARK VINA RESULT:      -4.4      2.429      3.435
REMARK  Name = 
REMARK  3 active torsions:
REMARK  status: ('A' for Active; 'I' for Inactive)
REMARK    1  A    between atoms: C_3  and  C_4
REMARK    2  A    between atoms: N_6  and  C_7
REMARK    3  A    between atoms: N_6  and  C_9
REMARK                            x       y       z     vdW  Elec       q    Type
REMARK                         _______ _______ _______ _____ _____    ______ ____
ROOT
ATOM      1  C   UNL     1     -12.155  13.342  65.538  0.00  0.00    +0.253 C 
ATOM      2  N   UNL     1     -11.483  13.420  66.803  0.00  0.00    -0.255 N 
ATOM      3  O   UNL     1     -13.170  14.077  65.335  0.00  0.00    -0.270 OA
ENDROOT
BRANCH   2   4
ATOM      4  C   UNL     1     -10.660  12.343  67.268  0.00  0.00    +0.050 A 
ATOM      5  C   UNL     1      -9.290  12.539  67.134  0.00  0.00    -0.008 A 
ATOM      6  C   UNL     1      -8.760  13.915  66.877  0.00  0.00    +0.032 C 
ATOM      7  C   UNL     1      -8.409  11.476  66.975  0.00  0.00    -0.003 A 
ATOM      8  C   UNL     1      -8.913  10.263  66.518  0.00  0.00    -0.000 A 
ATOM      9  C   UNL     1     -10.194   9.974  66.976  0.00  0.00    +0.001 A 
ATOM     10  C   UNL     1     -11.086  11.031  67.109  0.00  0.00    +0.015 A 
ENDBRANCH   2   4
BRANCH   1  13
ATOM     11  C   UNL     1     -10.349  11.072  63.332  0.00  0.00    +0.031 C 
ATOM     12  C   UNL     1     -11.471  12.034  63.575  0.00  0.00    -0.021 C 
ATOM     13  C   UNL     1     -11.354  13.106  64.326  0.00  0.00    +0.054 C 
ENDBRANCH   1  13
BRANCH   2  14
ATOM     14  C   UNL     1     -12.084  14.224  67.865  0.00  0.00    +0.099 C 
ATOM     15  C   UNL     1     -11.900  13.602  69.218  0.00  0.00    +0.024 C 
ENDBRANCH   2  14
TORSDOF 3
ENDMDL
MODEL 5
REMARK VINA RESULT:      -4.3      3.014      5.531
REMARK  Name = 
REMARK  3 active torsions:
REMARK  status: ('A' for Active; 'I' for Inactive)
REMARK    1  A    between atoms: C_3  and  C_4
REMARK    2  A    between atoms: N_6  and  C_7
REMARK    3  A    between atoms: N_6  and  C_9
REMARK                            x       y       z     vdW  Elec       q    Type
REMARK                         _______ _______ _______ _____ _____    ______ ____
ROOT
ATOM      1  C   UNL     1      -7.557  16.893  68.774  0.00  0.00    +0.253 C 
ATOM      2  N   UNL     1      -8.954  16.632  68.580  0.00  0.00    -0.255 N 
ATOM      3  O   UNL     1      -6.893  16.138  69.549  0.00  0.00    -0.270 OA
ENDROOT
BRANCH   2   4
ATOM      4  C   UNL     1      -9.840  17.661  68.119  0.00  0.00    +0.050 A 
ATOM      5  C   UNL     1     -10.177  17.597  66.772  0.00  0.00    -0.008 A 
ATOM      6  C   UNL     1      -9.923  16.338  66.003  0.00  0.00    +0.032 C 
ATOM      7  C   UNL     1     -10.505  18.734  66.044  0.00  0.00    -0.003 A 
ATOM      8  C   UNL     1     -10.086  19.970  66.524  0.00  0.00    -0.000 A 
ATOM      9  C   UNL     1     -10.092  20.070  67.911  0.00  0.00    +0.001 A 
ATOM     10  C   UNL     1      -9.737  18.943  68.642  0.00  0.00    +0.015 A 
ENDBRANCH   2   4
BRANCH   1  13
ATOM     11  C   UNL     1      -6.488  19.658  66.654  0.00  0.00    +0.031 C 
ATOM     12  C   UNL     1      -6.172  18.574  67.638  0.00  0.00    -0.021 C 
ATOM     13  C   UNL     1      -6.770  17.403  67.641  0.00  0.00    +0.054 C 
ENDBRANCH   1  13
BRANCH   2  14
ATOM     14  C   UNL     1      -9.594  15.606  69.402  0.00  0.00    +0.099 C 
ATOM     15  C   UNL     1     -10.930  16.050  69.920  0.00  0.00    +0.024 C 
ENDBRANCH   2  14
TORSDOF 3
ENDMDL
MODEL 6
REMARK VINA RESULT:      -4.3      2.087      4.505
REMARK  Name = 
REMARK  3 active torsions:
REMARK  status: ('A' for Active; 'I' for Inactive)
REMARK    1  A    between atoms: C_3  and  C_4
REMARK    2  A    between atoms: N_6  and  C_7
REMARK    3  A    between atoms: N_6  and  C_9
REMARK                            x       y       z     vdW  Elec       q    Type
REMARK                         _______ _______ _______ _____ _____    ______ ____
ROOT
ATOM      1  C   UNL     1     -11.400  15.462  68.172  0.00  0.00    +0.253 C 
ATOM      2  N   UNL     1     -10.177  15.750  67.479  0.00  0.00    -0.255 N 
ATOM      3  O   UNL     1     -11.973  14.348  67.969  0.00  0.00    -0.270 OA
ENDROOT
BRANCH   2   4
ATOM      4  C   UNL     1      -9.734  17.101  67.294  0.00  0.00    +0.050 A 
ATOM      5  C   UNL     1      -8.703  17.509  68.132  0.00  0.00    -0.008 A 
ATOM      6  C   UNL     1      -7.904  16.487  68.877  0.00  0.00    +0.032 C 
ATOM      7  C   UNL     1      -8.544  18.839  68.506  0.00  0.00    -0.003 A 
ATOM      8  C   UNL     1      -9.642  19.688  68.408  0.00  0.00    -0.000 A 
ATOM      9  C   UNL     1     -10.470  19.418  67.324  0.00  0.00    +0.001 A 
ATOM     10  C   UNL     1     -10.652  18.089  66.964  0.00  0.00    +0.015 A 
ENDBRANCH   2   4
BRANCH   1  13
ATOM     11  C   UNL     1     -13.208  15.476  71.335  0.00  0.00    +0.031 C 
ATOM     12  C   UNL     1     -11.959  15.216  70.550  0.00  0.00    -0.021 C 
ATOM     13  C   UNL     1     -11.569  15.965  69.544  0.00  0.00    +0.054 C 
ENDBRANCH   1  13
BRANCH   2  14
ATOM     14  C   UNL     1      -9.720  14.818  66.449  0.00  0.00    +0.099 C 
ATOM     15  C   UNL     1     -10.381  15.070  65.126  0.00  0.00    +0.024 C 
ENDBRANCH   2  14
TORSDOF 3
ENDMDL
MODEL 7
REMARK VINA RESULT:      -4.3      6.941      9.051
REMARK  Name = 
REMARK  3 active torsions:
REMARK  status: ('A' for Active; 'I' for Inactive)
REMARK    1  A    between atoms: C_3  and  C_4
REMARK    2  A    between atoms: N_6  and  C_7
REMARK    3  A    between atoms: N_6  and  C_9
REMARK                            x       y       z     vdW  Elec       q    Type
REMARK                         _______ _______ _______ _____ _____    ______ ____
ROOT
ATOM      1  C   UNL     1     -10.615   6.384  71.037  0.00  0.00    +0.253 C 
ATOM      2  N   UNL     1     -10.792   7.502  71.917  0.00  0.00    -0.255 N 
ATOM      3  O   UNL     1     -10.367   5.243  71.535  0.00  0.00    -0.270 OA
ENDROOT
BRANCH   2   4
ATOM      4  C   UNL     1     -10.614   8.846  71.448  0.00  0.00    +0.050 A 
ATOM      5  C   UNL     1     -11.781   9.588  71.311  0.00  0.00    -0.008 A 
ATOM      6  C   UNL     1     -13.042   9.116  71.966  0.00  0.00    +0.032 C 
ATOM      7  C   UNL     1     -11.892  10.617  70.383  0.00  0.00    -0.003 A 
ATOM      8  C   UNL     1     -11.014  10.629  69.304  0.00  0.00    -0.000 A 
ATOM      9  C   UNL     1      -9.737  10.171  69.609  0.00  0.00    +0.001 A 
ATOM     10  C   UNL     1      -9.625   9.125  70.516  0.00  0.00    +0.015 A 
ENDBRANCH   2   4
BRANCH   1  13
ATOM     11  C   UNL     1     -10.946   6.916  67.447  0.00  0.00    +0.031 C 
ATOM     12  C   UNL     1     -10.923   5.999  68.631  0.00  0.00    -0.021 C 
ATOM     13  C   UNL     1     -11.417   6.321  69.805  0.00  0.00    +0.054 C 
ENDBRANCH   1  13
BRANCH   2  14
ATOM     14  C   UNL     1     -10.525   7.319  73.343  0.00  0.00    +0.099 C 
ATOM     15  C   UNL     1      -9.124   7.710  73.710  0.00  0.00    +0.024 C 
ENDBRANCH   2  14
TORSDOF 3
ENDMDL
MODEL 8
REMARK VINA RESULT:      -4.2      4.362      6.145
REMARK  Name = 
REMARK  3 active torsions:
REMARK  status: ('A' for Active; 'I' for Inactive)
REMARK    1  A    between atoms: C_3  and  C_4
REMARK    2  A    between atoms: N_6  and  C_7
REMARK    3  A    between atoms: N_6  and  C_9
REMARK                            x       y       z     vdW  Elec       q    Type
REMARK                         _______ _______ _______ _____ _____    ______ ____
ROOT
ATOM      1  C   UNL     1      -8.000  17.700  66.445  0.00  0.00    +0.253 C 
ATOM      2  N   UNL     1      -8.280  19.103  66.542  0.00  0.00    -0.255 N 
ATOM      3  O   UNL     1      -8.836  16.945  65.861  0.00  0.00    -0.270 OA
ENDROOT
BRANCH   2   4
ATOM      4  C   UNL     1      -7.654  19.914  67.546  0.00  0.00    +0.050 A 
ATOM      5  C   UNL     1      -6.563  20.658  67.114  0.00  0.00    -0.008 A 
ATOM      6  C   UNL     1      -6.334  20.858  65.649  0.00  0.00    +0.032 C 
ATOM      7  C   UNL     1      -5.530  21.012  67.975  0.00  0.00    -0.003 A 
ATOM      8  C   UNL     1      -5.361  20.274  69.142  0.00  0.00    -0.000 A 
ATOM      9  C   UNL     1      -6.551  19.834  69.711  0.00  0.00    +0.001 A 
ATOM     10  C   UNL     1      -7.575  19.453  68.853  0.00  0.00    +0.015 A 
ENDBRANCH   2   4
BRANCH   1  13
ATOM     11  C   UNL     1      -4.713  16.982  67.846  0.00  0.00    +0.031 C 
ATOM     12  C   UNL     1      -5.956  16.530  67.144  0.00  0.00    -0.021 C 
ATOM     13  C   UNL     1      -6.604  17.269  66.272  0.00  0.00    +0.054 C 
ENDBRANCH   1  13
BRANCH   2  14
ATOM     14  C   UNL     1      -9.589  19.586  66.104  0.00  0.00    +0.099 C 
ATOM     15  C   UNL     1     -10.610  19.526  67.202  0.00  0.00    +0.024 C 
ENDBRANCH   2  14
TORSDOF 3
ENDMDL
MODEL 9
REMARK VINA RESULT:      -4.2      1.564      2.945
REMARK  Name = 
REMARK  3 active torsions:
REMARK  status: ('A' for Active; 'I' for Inactive)
REMARK    1  A    between atoms: C_3  and  C_4
REMARK    2  A    between atoms: N_6  and  C_7
REMARK    3  A    between atoms: N_6  and  C_9
REMARK                            x       y       z     vdW  Elec       q    Type
REMARK                         _______ _______ _______ _____ _____    ______ ____
ROOT
ATOM      1  C   UNL     1      -8.674  16.365  66.465  0.00  0.00    +0.253 C 
ATOM      2  N   UNL     1     -10.013  16.809  66.723  0.00  0.00    -0.255 N 
ATOM      3  O   UNL     1      -7.887  17.128  65.825  0.00  0.00    -0.270 OA
ENDROOT
BRANCH   2   4
ATOM      4  C   UNL     1     -11.059  15.870  67.008  0.00  0.00    +0.050 A 
ATOM      5  C   UNL     1     -11.294  15.634  68.358  0.00  0.00    -0.008 A 
ATOM      6  C   UNL     1     -10.746  16.577  69.382  0.00  0.00    +0.032 C 
ATOM      7  C   UNL     1     -11.801  14.422  68.813  0.00  0.00    -0.003 A 
ATOM      8  C   UNL     1     -11.669  13.303  67.997  0.00  0.00    -0.000 A 
ATOM      9  C   UNL     1     -11.779  13.577  66.638  0.00  0.00    +0.001 A 
ATOM     10  C   UNL     1     -11.249  14.775  66.176  0.00  0.00    +0.015 A 
ENDBRANCH   2   4
BRANCH   1  13
ATOM     11  C   UNL     1      -8.182  13.162  68.131  0.00  0.00    +0.031 C 
ATOM     12  C   UNL     1      -7.659  14.287  67.292  0.00  0.00    -0.021 C 
ATOM     13  C   UNL     1      -7.994  15.544  67.479  0.00  0.00    +0.054 C 
ENDBRANCH   1  13
BRANCH   2  14
ATOM     14  C   UNL     1     -10.469  18.052  66.104  0.00  0.00    +0.099 C 
ATOM     15  C   UNL     1     -10.475  19.197  67.074  0.00  0.00    +0.024 C 
ENDBRANCH   2  14
TORSDOF 3
ENDMDL
