MODEL 1
REMARK VINA RESULT:      -6.0      0.000      0.000
REMARK  Name = 
REMARK  3 active torsions:
REMARK  status: ('A' for Active; 'I' for Inactive)
REMARK    1  A    between atoms: N_2  and  N_3
REMARK    2  A    between atoms: N_7  and  C_8
REMARK    3  A    between atoms: C_13  and  C_14
REMARK                            x       y       z     vdW  Elec       q    Type
REMARK                         _______ _______ _______ _____ _____    ______ ____
ROOT
ATOM      1  C   UNL     1     -11.935  14.327  67.162  0.00  0.00    +0.189 C 
ATOM      2  C   UNL     1     -11.015  15.195  66.012  0.00  0.00    +0.292 C 
ATOM      3  O   UNL     1      -9.569  14.819  66.311  0.00  0.00    -0.188 OA
ATOM      4  O   UNL     1     -11.363  14.076  65.014  0.00  0.00    -0.324 OA
ATOM      5  C   UNL     1     -10.044  13.370  64.901  0.00  0.00    +0.184 C 
ATOM      6  C   UNL     1     -10.056  12.414  66.333  0.00  0.00    +0.214 C 
ATOM      7  O   UNL     1      -9.327  13.206  67.391  0.00  0.00    -0.218 OA
ATOM      8  C   UNL     1     -11.603  12.667  67.015  0.00  0.00    +0.210 C 
ATOM      9  O   UNL     1     -12.457  12.450  65.775  0.00  0.00    -0.218 OA
ENDROOT
BRANCH   1  13
ATOM     10  C   UNL     1     -12.596  13.827  70.905  0.00  0.00    +0.148 C 
ATOM     11  N   UNL     1     -12.519  14.700  70.552  0.00  0.00    -0.127 N 
ATOM     12  C   UNL     1     -11.772  15.220  69.454  0.00  0.00    +0.345 C 
ATOM     13  N   UNL     1     -11.062  14.467  68.451  0.00  0.00    -0.181 NA
ATOM     14  O   UNL     1     -12.050  16.363  68.978  0.00  0.00    -0.249 OA
BRANCH  11  15
ATOM     15  N   UNL     1     -13.192  15.682  71.312  0.00  0.00    +0.053 NA
ATOM     16  O   UNL     1     -14.344  15.642  71.600  0.00  0.00    -0.126 OA
ENDBRANCH  11  15
ENDBRANCH   1  13
BRANCH   5  17
ATOM     17  C   UNL     1     -10.679  12.006  64.219  0.00  0.00    +0.214 C 
ATOM     18  O   UNL     1     -10.533  11.697  63.082  0.00  0.00    -0.218 OA
ENDBRANCH   5  17
TORSDOF 3
ENDMDL
MODEL 2
REMARK VINA RESULT:      -5.9      2.873      4.342
REMARK  Name = 
REMARK  3 active torsions:
REMARK  status: ('A' for Active; 'I' for Inactive)
REMARK    1  A    between atoms: N_2  and  N_3
REMARK    2  A    between atoms: N_7  and  C_8
REMARK    3  A    between atoms: C_13  and  C_14
REMARK                            x       y       z     vdW  Elec       q    Type
REMARK                         _______ _______ _______ _____ _____    ______ ____
ROOT
ATOM      1  C   UNL     1     -11.607  14.557  66.015  0.00  0.00    +0.189 C 
ATOM      2  C   UNL     1     -11.601  13.064  65.182  0.00  0.00    +0.292 C 
ATOM      3  O   UNL     1     -10.156  12.586  65.257  0.00  0.00    -0.188 OA
ATOM      4  O   UNL     1     -12.140  12.434  66.479  0.00  0.00    -0.324 OA
ATOM      5  C   UNL     1     -10.934  11.683  66.958  0.00  0.00    +0.184 C 
ATOM      6  C   UNL     1     -10.019  12.950  67.679  0.00  0.00    +0.214 C 
ATOM      7  O   UNL     1      -9.058  13.446  66.627  0.00  0.00    -0.218 OA
ATOM      8  C   UNL     1     -11.032  14.324  67.597  0.00  0.00    +0.210 C 
ATOM      9  O   UNL     1     -12.318  13.714  68.137  0.00  0.00    -0.218 OA
ENDROOT
BRANCH   1  13
ATOM     10  C   UNL     1      -9.703  17.754  66.936  0.00  0.00    +0.148 C 
ATOM     11  N   UNL     1     -10.168  17.701  66.115  0.00  0.00    -0.127 N 
ATOM     12  C   UNL     1     -10.459  16.601  65.255  0.00  0.00    +0.345 C 
ATOM     13  N   UNL     1     -10.266  15.202  65.539  0.00  0.00    -0.181 NA
ATOM     14  O   UNL     1     -11.349  16.712  64.358  0.00  0.00    -0.249 OA
BRANCH  11  15
ATOM     15  N   UNL     1     -10.559  18.958  65.602  0.00  0.00    +0.053 NA
ATOM     16  O   UNL     1     -10.282  20.004  66.092  0.00  0.00    -0.126 OA
ENDBRANCH  11  15
ENDBRANCH   1  13
BRANCH   5  17
ATOM     17  C   UNL     1     -11.502  11.481  68.496  0.00  0.00    +0.214 C 
ATOM     18  O   UNL     1     -12.288  10.650  68.815  0.00  0.00    -0.218 OA
ENDBRANCH   5  17
TORSDOF 3
ENDMDL
MODEL 3
REMARK VINA RESULT:      -5.8      3.857      5.620
REMARK  Name = 
REMARK  3 active torsions:
REMARK  status: ('A' for Active; 'I' for Inactive)
REMARK    1  A    between atoms: N_2  and  N_3
REMARK    2  A    between atoms: N_7  and  C_8
REMARK    3  A    between atoms: C_13  and  C_14
REMARK                            x       y       z     vdW  Elec       q    Type
REMARK                         _______ _______ _______ _____ _____    ______ ____
ROOT
ATOM      1  C   UNL     1      -9.465  17.116  68.008  0.00  0.00    +0.189 C 
ATOM      2  C   UNL     1      -9.189  17.369  66.339  0.00  0.00    +0.292 C 
ATOM      3  O   UNL     1     -10.255  18.374  65.920  0.00  0.00    -0.188 OA
ATOM      4  O   UNL     1      -8.075  18.345  66.758  0.00  0.00    -0.324 OA
ATOM      5  C   UNL     1      -8.704  19.664  66.417  0.00  0.00    +0.184 C 
ATOM      6  C   UNL     1      -9.739  19.899  67.772  0.00  0.00    +0.214 C 
ATOM      7  O   UNL     1     -11.095  19.365  67.382  0.00  0.00    -0.218 OA
ATOM      8  C   UNL     1      -9.381  18.603  68.827  0.00  0.00    +0.210 C 
ATOM      9  O   UNL     1      -7.861  18.693  68.820  0.00  0.00    -0.218 OA
ENDROOT
BRANCH   1  13
ATOM     10  C   UNL     1     -11.994  15.941  70.638  0.00  0.00    +0.148 C 
ATOM     11  N   UNL     1     -11.846  15.423  69.861  0.00  0.00    -0.127 N 
ATOM     12  C   UNL     1     -11.472  15.785  68.533  0.00  0.00    +0.345 C 
ATOM     13  N   UNL     1     -11.026  17.077  68.078  0.00  0.00    -0.181 NA
ATOM     14  O   UNL     1     -11.041  14.903  67.730  0.00  0.00    -0.249 OA
BRANCH  11  15
ATOM     15  N   UNL     1     -12.144  14.052  70.026  0.00  0.00    +0.053 NA
ATOM     16  O   UNL     1     -12.559  13.566  71.028  0.00  0.00    -0.126 OA
ENDBRANCH  11  15
ENDBRANCH   1  13
BRANCH   5  17
ATOM     17  C   UNL     1      -7.645  20.556  67.317  0.00  0.00    +0.214 C 
ATOM     18  O   UNL     1      -6.850  21.311  66.861  0.00  0.00    -0.218 OA
ENDBRANCH   5  17
TORSDOF 3
ENDMDL
MODEL 4
REMARK VINA RESULT:      -5.7      2.787      4.072
REMARK  Name = 
REMARK  3 active torsions:
REMARK  status: ('A' for Active; 'I' for Inactive)
REMARK    1  A    between atoms: N_2  and  N_3
REMARK    2  A    between atoms: N_7  and  C_8
REMARK    3  A    between atoms: C_13  and  C_14
REMARK                            x       y       z     vdW  Elec       q    Type
REMARK                         _______ _______ _______ _____ _____    ______ ____
ROOT
ATOM      1  C   UNL     1     -10.517  12.741  67.298  0.00  0.00    +0.189 C 
ATOM      2  C   UNL     1      -9.816  12.546  65.751  0.00  0.00    +0.292 C 
ATOM      3  O   UNL     1     -10.975  12.135  64.851  0.00  0.00    -0.188 OA
ATOM      4  O   UNL     1      -9.918  14.075  65.605  0.00  0.00    -0.324 OA
ATOM      5  C   UNL     1     -11.036  14.197  64.612  0.00  0.00    +0.184 C 
ATOM      6  C   UNL     1     -12.407  13.970  65.627  0.00  0.00    +0.214 C 
ATOM      7  O   UNL     1     -12.760  12.503  65.560  0.00  0.00    -0.218 OA
ATOM      8  C   UNL     1     -11.771  13.884  67.211  0.00  0.00    +0.210 C 
ATOM      9  O   UNL     1     -10.862  15.104  67.177  0.00  0.00    -0.218 OA
ENDROOT
BRANCH   1  13
ATOM     10  C   UNL     1     -12.449  11.010  70.120  0.00  0.00    +0.148 C 
ATOM     11  N   UNL     1     -11.695  10.588  69.736  0.00  0.00    -0.127 N 
ATOM     12  C   UNL     1     -11.143  10.639  68.422  0.00  0.00    +0.345 C 
ATOM     13  N   UNL     1     -11.513  11.538  67.359  0.00  0.00    -0.181 NA
ATOM     14  O   UNL     1      -9.962  10.228  68.211  0.00  0.00    -0.249 OA
BRANCH  11  15
ATOM     15  N   UNL     1     -11.060   9.665  70.597  0.00  0.00    +0.053 NA
ATOM     16  O   UNL     1     -11.500   9.299  71.638  0.00  0.00    -0.126 OA
ENDBRANCH  11  15
ENDBRANCH   1  13
BRANCH   5  17
ATOM     17  C   UNL     1     -11.316  15.795  64.920  0.00  0.00    +0.214 C 
ATOM     18  O   UNL     1     -11.311  16.647  64.092  0.00  0.00    -0.218 OA
ENDBRANCH   5  17
TORSDOF 3
ENDMDL
MODEL 5
REMARK VINA RESULT:      -5.5      3.635      5.889
REMARK  Name = 
REMARK  3 active torsions:
REMARK  status: ('A' for Active; 'I' for Inactive)
REMARK    1  A    between atoms: N_2  and  N_3
REMARK    2  A    between atoms: N_7  and  C_8
REMARK    3  A    between atoms: C_13  and  C_14
REMARK                            x       y       z     vdW  Elec       q    Type
REMARK                         _______ _______ _______ _____ _____    ______ ____
ROOT
ATOM      1  C   UNL     1      -9.670  17.005  66.310  0.00  0.00    +0.189 C 
ATOM      2  C   UNL     1     -10.499  18.468  66.001  0.00  0.00    +0.292 C 
ATOM      3  O   UNL     1     -10.995  18.927  67.367  0.00  0.00    -0.188 OA
ATOM      4  O   UNL     1      -9.119  19.150  65.995  0.00  0.00    -0.324 OA
ATOM      5  C   UNL     1      -9.161  19.899  67.294  0.00  0.00    +0.184 C 
ATOM      6  C   UNL     1      -8.793  18.644  68.412  0.00  0.00    +0.214 C 
ATOM      7  O   UNL     1     -10.112  18.097  68.902  0.00  0.00    -0.218 OA
ATOM      8  C   UNL     1      -8.434  17.283  67.442  0.00  0.00    +0.210 C 
ATOM      9  O   UNL     1      -7.470  17.931  66.458  0.00  0.00    -0.218 OA
ENDROOT
BRANCH   1  13
ATOM     10  C   UNL     1      -9.745  13.548  67.964  0.00  0.00    +0.148 C 
ATOM     11  N   UNL     1     -10.380  13.767  67.300  0.00  0.00    -0.127 N 
ATOM     12  C   UNL     1     -10.977  15.008  66.925  0.00  0.00    +0.345 C 
ATOM     13  N   UNL     1     -10.595  16.324  67.370  0.00  0.00    -0.181 NA
ATOM     14  O   UNL     1     -11.579  15.116  65.814  0.00  0.00    -0.249 OA
BRANCH  11  15
ATOM     15  N   UNL     1     -10.905  12.644  66.622  0.00  0.00    +0.053 NA
ATOM     16  O   UNL     1     -11.883  12.054  66.947  0.00  0.00    -0.126 OA
ENDBRANCH  11  15
ENDBRANCH   1  13
BRANCH   5  17
ATOM     17  C   UNL     1      -7.532  20.162  67.351  0.00  0.00    +0.214 C 
ATOM     18  O   UNL     1      -7.024  21.234  67.286  0.00  0.00    -0.218 OA
ENDBRANCH   5  17
TORSDOF 3
ENDMDL
MODEL 6
REMARK VINA RESULT:      -5.5      2.921      5.526
REMARK  Name = 
REMARK  3 active torsions:
REMARK  status: ('A' for Active; 'I' for Inactive)
REMARK    1  A    between atoms: N_2  and  N_3
REMARK    2  A    between atoms: N_7  and  C_8
REMARK    3  A    between atoms: C_13  and  C_14
REMARK                            x       y       z     vdW  Elec       q    Type
REMARK                         _______ _______ _______ _____ _____    ______ ____
ROOT
ATOM      1  C   UNL     1     -10.907  15.610  66.420  0.00  0.00    +0.189 C 
ATOM      2  C   UNL     1     -11.165  16.113  68.033  0.00  0.00    +0.292 C 
ATOM      3  O   UNL     1     -10.467  15.058  68.883  0.00  0.00    -0.188 OA
ATOM      4  O   UNL     1      -9.990  17.086  67.829  0.00  0.00    -0.324 OA
ATOM      5  C   UNL     1      -8.924  16.430  68.655  0.00  0.00    +0.184 C 
ATOM      6  C   UNL     1      -8.389  15.193  67.585  0.00  0.00    +0.214 C 
ATOM      7  O   UNL     1      -9.165  13.947  67.937  0.00  0.00    -0.218 OA
ATOM      8  C   UNL     1      -9.238  15.475  66.129  0.00  0.00    +0.210 C 
ATOM      9  O   UNL     1      -8.988  16.969  65.984  0.00  0.00    -0.218 OA
ENDROOT
BRANCH   1  13
ATOM     10  C   UNL     1     -10.566  12.700  63.948  0.00  0.00    +0.148 C 
ATOM     11  N   UNL     1     -11.424  12.994  64.216  0.00  0.00    -0.127 N 
ATOM     12  C   UNL     1     -11.893  13.580  65.429  0.00  0.00    +0.345 C 
ATOM     13  N   UNL     1     -11.093  14.063  66.527  0.00  0.00    -0.181 NA
ATOM     14  O   UNL     1     -13.017  14.167  65.460  0.00  0.00    -0.249 OA
BRANCH  11  15
ATOM     15  N   UNL     1     -12.441  12.709  63.279  0.00  0.00    +0.053 NA
ATOM     16  O   UNL     1     -13.208  11.805  63.367  0.00  0.00    -0.126 OA
ENDBRANCH  11  15
ENDBRANCH   1  13
BRANCH   5  17
ATOM     17  C   UNL     1      -7.683  17.283  67.978  0.00  0.00    +0.214 C 
ATOM     18  O   UNL     1      -7.186  18.244  68.468  0.00  0.00    -0.218 OA
ENDBRANCH   5  17
TORSDOF 3
ENDMDL
MODEL 7
REMARK VINA RESULT:      -5.5      2.991      5.614
REMARK  Name = 
REMARK  3 active torsions:
REMARK  status: ('A' for Active; 'I' for Inactive)
REMARK    1  A    between atoms: N_2  and  N_3
REMARK    2  A    between atoms: N_7  and  C_8
REMARK    3  A    between atoms: C_13  and  C_14
REMARK                            x       y       z     vdW  Elec       q    Type
REMARK                         _______ _______ _______ _____ _____    ______ ____
ROOT
ATOM      1  C   UNL     1      -9.988  15.951  65.896  0.00  0.00    +0.189 C 
ATOM      2  C   UNL     1     -10.251  17.534  66.486  0.00  0.00    +0.292 C 
ATOM      3  O   UNL     1     -10.980  17.336  67.810  0.00  0.00    -0.188 OA
ATOM      4  O   UNL     1      -8.798  17.496  66.993  0.00  0.00    -0.324 OA
ATOM      5  C   UNL     1      -9.012  17.370  68.472  0.00  0.00    +0.184 C 
ATOM      6  C   UNL     1      -9.351  15.689  68.616  0.00  0.00    +0.214 C 
ATOM      7  O   UNL     1     -10.852  15.542  68.577  0.00  0.00    -0.218 OA
ATOM      8  C   UNL     1      -9.112  15.057  67.046  0.00  0.00    +0.210 C 
ATOM      9  O   UNL     1      -7.762  15.686  66.731  0.00  0.00    -0.218 OA
ENDROOT
BRANCH   1  13
ATOM     10  C   UNL     1     -11.455  12.484  65.175  0.00  0.00    +0.148 C 
ATOM     11  N   UNL     1     -11.779  13.240  64.710  0.00  0.00    -0.127 N 
ATOM     12  C   UNL     1     -11.891  14.612  65.083  0.00  0.00    +0.345 C 
ATOM     13  N   UNL     1     -11.333  15.241  66.253  0.00  0.00    -0.181 NA
ATOM     14  O   UNL     1     -12.078  15.500  64.198  0.00  0.00    -0.249 OA
BRANCH  11  15
ATOM     15  N   UNL     1     -12.346  12.934  63.452  0.00  0.00    +0.053 NA
ATOM     16  O   UNL     1     -13.010  11.975  63.226  0.00  0.00    -0.126 OA
ENDBRANCH  11  15
ENDBRANCH   1  13
BRANCH   5  17
ATOM     17  C   UNL     1      -7.465  16.887  68.791  0.00  0.00    +0.214 C 
ATOM     18  O   UNL     1      -6.608  17.606  69.190  0.00  0.00    -0.218 OA
ENDBRANCH   5  17
TORSDOF 3
ENDMDL
MODEL 8
REMARK VINA RESULT:      -5.5      3.311      5.519
REMARK  Name = 
REMARK  3 active torsions:
REMARK  status: ('A' for Active; 'I' for Inactive)
REMARK    1  A    between atoms: N_2  and  N_3
REMARK    2  A    between atoms: N_7  and  C_8
REMARK    3  A    between atoms: C_13  and  C_14
REMARK                            x       y       z     vdW  Elec       q    Type
REMARK                         _______ _______ _______ _____ _____    ______ ____
ROOT
ATOM      1  C   UNL     1      -9.194  15.812  67.291  0.00  0.00    +0.189 C 
ATOM      2  C   UNL     1      -8.720  16.903  66.062  0.00  0.00    +0.292 C 
ATOM      3  O   UNL     1      -9.795  17.982  66.068  0.00  0.00    -0.188 OA
ATOM      4  O   UNL     1      -7.751  17.510  67.092  0.00  0.00    -0.324 OA
ATOM      5  C   UNL     1      -8.429  18.813  67.394  0.00  0.00    +0.184 C 
ATOM      6  C   UNL     1      -9.649  18.305  68.496  0.00  0.00    +0.214 C 
ATOM      7  O   UNL     1     -10.897  18.060  67.682  0.00  0.00    -0.218 OA
ATOM      8  C   UNL     1      -9.334  16.647  68.765  0.00  0.00    +0.210 C 
ATOM      9  O   UNL     1      -7.839  16.722  69.039  0.00  0.00    -0.218 OA
ENDROOT
BRANCH   1  13
ATOM     10  C   UNL     1     -11.968  13.528  68.624  0.00  0.00    +0.148 C 
ATOM     11  N   UNL     1     -11.677  13.443  67.729  0.00  0.00    -0.127 N 
ATOM     12  C   UNL     1     -11.151  14.395  66.806  0.00  0.00    +0.345 C 
ATOM     13  N   UNL     1     -10.742  15.747  67.090  0.00  0.00    -0.181 NA
ATOM     14  O   UNL     1     -10.550  14.003  65.760  0.00  0.00    -0.249 OA
BRANCH  11  15
ATOM     15  N   UNL     1     -11.894  12.161  67.179  0.00  0.00    +0.053 NA
ATOM     16  O   UNL     1     -11.973  11.158  67.811  0.00  0.00    -0.126 OA
ENDBRANCH  11  15
ENDBRANCH   1  13
BRANCH   5  17
ATOM     17  C   UNL     1      -7.571  19.097  68.776  0.00  0.00    +0.214 C 
ATOM     18  O   UNL     1      -6.670  19.866  68.859  0.00  0.00    -0.218 OA
ENDBRANCH   5  17
TORSDOF 3
ENDMDL
MODEL 9
REMARK VINA RESULT:      -5.4      3.089      5.114
REMARK  Name = 
REMARK  3 active torsions:
REMARK  status: ('A' for Active; 'I' for Inactive)
REMARK    1  A    between atoms: N_2  and  N_3
REMARK    2  A    between atoms: N_7  and  C_8
REMARK    3  A    between atoms: C_13  and  C_14
REMARK                            x       y       z     vdW  Elec       q    Type
REMARK                         _______ _______ _______ _____ _____    ______ ____
ROOT
ATOM      1  C   UNL     1     -11.639  12.398  66.479  0.00  0.00    +0.189 C 
ATOM      2  C   UNL     1     -11.908  13.722  67.527  0.00  0.00    +0.292 C 
ATOM      3  O   UNL     1     -10.515  14.242  67.857  0.00  0.00    -0.188 OA
ATOM      4  O   UNL     1     -12.193  14.555  66.264  0.00  0.00    -0.324 OA
ATOM      5  C   UNL     1     -10.961  15.408  66.197  0.00  0.00    +0.184 C 
ATOM      6  C   UNL     1      -9.834  14.310  65.501  0.00  0.00    +0.214 C 
ATOM      7  O   UNL     1      -9.094  13.661  66.646  0.00  0.00    -0.218 OA
ATOM      8  C   UNL     1     -10.752  12.917  65.127  0.00  0.00    +0.210 C 
ATOM      9  O   UNL     1     -11.926  13.580  64.421  0.00  0.00    -0.218 OA
ENDROOT
BRANCH   1  13
ATOM     10  C   UNL     1      -9.636   9.217  65.725  0.00  0.00    +0.148 C 
ATOM     11  N   UNL     1     -10.225   9.240  66.464  0.00  0.00    -0.127 N 
ATOM     12  C   UNL     1     -10.641  10.306  67.317  0.00  0.00    +0.345 C 
ATOM     13  N   UNL     1     -10.395  11.713  67.131  0.00  0.00    -0.181 NA
ATOM     14  O   UNL     1     -11.662  10.169  68.057  0.00  0.00    -0.249 OA
BRANCH  11  15
ATOM     15  N   UNL     1     -10.701   7.968  66.852  0.00  0.00    +0.053 NA
ATOM     16  O   UNL     1     -10.076   6.960  66.774  0.00  0.00    -0.126 OA
ENDBRANCH  11  15
ENDBRANCH   1  13
BRANCH   5  17
ATOM     17  C   UNL     1     -11.195  15.860  64.626  0.00  0.00    +0.214 C 
ATOM     18  O   UNL     1     -11.361  16.981  64.270  0.00  0.00    -0.218 OA
ENDBRANCH   5  17
TORSDOF 3
ENDMDL
