MODEL 1
REMARK VINA RESULT:      -7.1      0.000      0.000
REMARK  Name = 
REMARK  3 active torsions:
REMARK  status: ('A' for Active; 'I' for Inactive)
REMARK    1  A    between atoms: C_4  and  C_5
REMARK    2  A    between atoms: C_5  and  C_6
REMARK    3  A    between atoms: C_6  and  C_8
REMARK                            x       y       z     vdW  Elec       q    Type
REMARK                         _______ _______ _______ _____ _____    ______ ____
ROOT
ATOM      1  C   UNL     1     -10.791  14.263  68.362  0.00  0.00    +0.050 C 
ATOM      2  C   UNL     1     -11.449  15.026  69.380  0.00  0.00    +0.197 C 
ATOM      3  O   UNL     1     -11.453  16.269  69.212  0.00  0.00    -0.287 OA
ATOM      4  C   UNL     1     -12.079  14.474  70.579  0.00  0.00    +0.084 A 
ATOM      5  C   UNL     1     -12.369  13.133  70.564  0.00  0.00    +0.084 A 
ATOM      6  C   UNL     1     -13.223  12.632  71.523  0.00  0.00    +0.199 A 
ATOM      7  C   UNL     1     -13.788  13.517  72.421  0.00  0.00    +0.045 A 
ATOM      8  C   UNL     1     -13.550  14.884  72.376  0.00  0.00    +0.045 A 
ATOM      9  O   UNL     1     -13.074  11.279  71.850  0.00  0.00    -0.286 OA
ATOM     10  C   UNL     1     -11.702  12.320  69.561  0.00  0.00    +0.199 C 
ATOM     11  O   UNL     1     -11.985  11.088  69.562  0.00  0.00    -0.286 OA
ATOM     12  C   UNL     1     -12.557  15.345  71.526  0.00  0.00    +0.199 A 
ATOM     13  O   UNL     1     -11.878  16.530  71.712  0.00  0.00    -0.286 OA
ATOM     14  C   UNL     1     -10.829  12.939  68.557  0.00  0.00    +0.043 C 
ENDROOT
BRANCH   1  15
ATOM     15  C   UNL     1     -11.089  14.637  66.809  0.00  0.00    +0.182 C 
ATOM     16  O   UNL     1     -12.367  13.807  66.804  0.00  0.00    -0.218 OA
BRANCH  15  17
ATOM     17  C   UNL     1     -10.229  13.390  66.147  0.00  0.00    +0.063 C 
BRANCH  17  20
ATOM     18  C   UNL     1      -9.966  11.640  63.167  0.00  0.00    +0.026 C 
ATOM     19  C   UNL     1     -10.926  12.338  63.992  0.00  0.00    -0.048 C 
ATOM     20  C   UNL     1     -10.671  13.369  64.757  0.00  0.00    -0.032 C 
ATOM     21  C   UNL     1     -12.344  12.260  63.502  0.00  0.00    +0.026 C 
ENDBRANCH  17  20
ENDBRANCH  15  17
ENDBRANCH   1  15
TORSDOF 3
ENDMDL
MODEL 2
REMARK VINA RESULT:      -7.0      1.966      6.475
REMARK  Name = 
REMARK  3 active torsions:
REMARK  status: ('A' for Active; 'I' for Inactive)
REMARK    1  A    between atoms: C_4  and  C_5
REMARK    2  A    between atoms: C_5  and  C_6
REMARK    3  A    between atoms: C_6  and  C_8
REMARK                            x       y       z     vdW  Elec       q    Type
REMARK                         _______ _______ _______ _____ _____    ______ ____
ROOT
ATOM      1  C   UNL     1     -12.109  13.670  67.565  0.00  0.00    +0.050 C 
ATOM      2  C   UNL     1     -11.917  13.601  66.147  0.00  0.00    +0.197 C 
ATOM      3  O   UNL     1     -12.177  14.649  65.510  0.00  0.00    -0.287 OA
ATOM      4  C   UNL     1     -11.474  12.418  65.408  0.00  0.00    +0.084 A 
ATOM      5  C   UNL     1     -10.871  11.424  66.137  0.00  0.00    +0.084 A 
ATOM      6  C   UNL     1     -10.173  10.444  65.464  0.00  0.00    +0.199 A 
ATOM      7  C   UNL     1     -10.070  10.542  64.090  0.00  0.00    +0.045 A 
ATOM      8  C   UNL     1     -10.616  11.598  63.371  0.00  0.00    +0.045 A 
ATOM      9  O   UNL     1     -10.061   9.203  66.102  0.00  0.00    -0.286 OA
ATOM     10  C   UNL     1     -11.063  11.444  67.577  0.00  0.00    +0.199 C 
ATOM     11  O   UNL     1     -10.498  10.521  68.230  0.00  0.00    -0.286 OA
ATOM     12  C   UNL     1     -11.461  12.471  64.037  0.00  0.00    +0.199 A 
ATOM     13  O   UNL     1     -12.432  13.224  63.413  0.00  0.00    -0.286 OA
ATOM     14  C   UNL     1     -11.798  12.543  68.218  0.00  0.00    +0.043 C 
ENDROOT
BRANCH   1  15
ATOM     15  C   UNL     1     -11.552  14.977  68.352  0.00  0.00    +0.182 C 
ATOM     16  O   UNL     1     -10.112  14.495  68.234  0.00  0.00    -0.218 OA
BRANCH  15  17
ATOM     17  C   UNL     1     -11.680  14.348  69.875  0.00  0.00    +0.063 C 
BRANCH  17  20
ATOM     18  C   UNL     1     -14.637  15.040  71.547  0.00  0.00    +0.026 C 
ATOM     19  C   UNL     1     -13.210  15.252  71.631  0.00  0.00    -0.048 C 
ATOM     20  C   UNL     1     -12.394  15.382  70.615  0.00  0.00    -0.032 C 
ATOM     21  C   UNL     1     -12.752  15.931  72.890  0.00  0.00    +0.026 C 
ENDBRANCH  17  20
ENDBRANCH  15  17
ENDBRANCH   1  15
TORSDOF 3
ENDMDL
MODEL 3
REMARK VINA RESULT:      -7.0      2.677      4.657
REMARK  Name = 
REMARK  3 active torsions:
REMARK  status: ('A' for Active; 'I' for Inactive)
REMARK    1  A    between atoms: C_4  and  C_5
REMARK    2  A    between atoms: C_5  and  C_6
REMARK    3  A    between atoms: C_6  and  C_8
REMARK                            x       y       z     vdW  Elec       q    Type
REMARK                         _______ _______ _______ _____ _____    ______ ____
ROOT
ATOM      1  C   UNL     1     -11.244  15.111  68.534  0.00  0.00    +0.050 C 
ATOM      2  C   UNL     1     -11.267  13.691  68.723  0.00  0.00    +0.197 C 
ATOM      3  O   UNL     1     -10.520  13.028  67.964  0.00  0.00    -0.287 OA
ATOM      4  C   UNL     1     -12.096  12.979  69.695  0.00  0.00    +0.084 A 
ATOM      5  C   UNL     1     -12.619  13.722  70.724  0.00  0.00    +0.084 A 
ATOM      6  C   UNL     1     -13.142  13.062  71.815  0.00  0.00    +0.199 A 
ATOM      7  C   UNL     1     -13.063  11.683  71.843  0.00  0.00    +0.045 A 
ATOM      8  C   UNL     1     -12.458  10.946  70.834  0.00  0.00    +0.045 A 
ATOM      9  O   UNL     1     -14.128  13.737  72.543  0.00  0.00    -0.286 OA
ATOM     10  C   UNL     1     -12.636  15.166  70.560  0.00  0.00    +0.199 C 
ATOM     11  O   UNL     1     -13.120  15.832  71.519  0.00  0.00    -0.286 OA
ATOM     12  C   UNL     1     -12.102  11.606  69.669  0.00  0.00    +0.199 A 
ATOM     13  O   UNL     1     -11.968  10.986  68.445  0.00  0.00    -0.286 OA
ATOM     14  C   UNL     1     -12.031  15.791  69.377  0.00  0.00    +0.043 C 
ENDROOT
BRANCH   1  15
ATOM     15  C   UNL     1      -9.801  15.838  68.361  0.00  0.00    +0.182 C 
ATOM     16  O   UNL     1      -9.379  15.441  69.771  0.00  0.00    -0.218 OA
BRANCH  15  17
ATOM     17  C   UNL     1     -10.280  17.332  68.883  0.00  0.00    +0.063 C 
BRANCH  17  20
ATOM     18  C   UNL     1     -10.629  19.037  65.885  0.00  0.00    +0.026 C 
ATOM     19  C   UNL     1     -10.120  19.196  67.228  0.00  0.00    -0.048 C 
ATOM     20  C   UNL     1      -9.606  18.247  67.970  0.00  0.00    -0.032 C 
ATOM     21  C   UNL     1      -9.622  20.576  67.548  0.00  0.00    +0.026 C 
ENDBRANCH  17  20
ENDBRANCH  15  17
ENDBRANCH   1  15
TORSDOF 3
ENDMDL
MODEL 4
REMARK VINA RESULT:      -7.0      3.603      6.520
REMARK  Name = 
REMARK  3 active torsions:
REMARK  status: ('A' for Active; 'I' for Inactive)
REMARK    1  A    between atoms: C_4  and  C_5
REMARK    2  A    between atoms: C_5  and  C_6
REMARK    3  A    between atoms: C_6  and  C_8
REMARK                            x       y       z     vdW  Elec       q    Type
REMARK                         _______ _______ _______ _____ _____    ______ ____
ROOT
ATOM      1  C   UNL     1      -9.513  16.428  67.178  0.00  0.00    +0.050 C 
ATOM      2  C   UNL     1      -9.855  15.067  67.464  0.00  0.00    +0.197 C 
ATOM      3  O   UNL     1      -9.494  14.638  68.586  0.00  0.00    -0.287 OA
ATOM      4  C   UNL     1     -10.557  14.160  66.556  0.00  0.00    +0.084 A 
ATOM      5  C   UNL     1     -11.237  14.735  65.512  0.00  0.00    +0.084 A 
ATOM      6  C   UNL     1     -12.149  13.970  64.817  0.00  0.00    +0.199 A 
ATOM      7  C   UNL     1     -12.373  12.674  65.243  0.00  0.00    +0.045 A 
ATOM      8  C   UNL     1     -11.737  12.129  66.351  0.00  0.00    +0.045 A 
ATOM      9  O   UNL     1     -12.397  14.339  63.490  0.00  0.00    -0.286 OA
ATOM     10  C   UNL     1     -10.901  16.108  65.174  0.00  0.00    +0.199 C 
ATOM     11  O   UNL     1     -11.540  16.619  64.211  0.00  0.00    -0.286 OA
ATOM     12  C   UNL     1     -10.699  12.845  66.925  0.00  0.00    +0.199 A 
ATOM     13  O   UNL     1      -9.686  12.271  67.662  0.00  0.00    -0.286 OA
ATOM     14  C   UNL     1      -9.937  16.862  65.984  0.00  0.00    +0.043 C 
ENDROOT
BRANCH   1  15
ATOM     15  C   UNL     1      -9.768  17.542  68.333  0.00  0.00    +0.182 C 
ATOM     16  O   UNL     1     -11.275  17.324  68.278  0.00  0.00    -0.218 OA
BRANCH  15  17
ATOM     17  C   UNL     1      -9.879  18.842  67.318  0.00  0.00    +0.063 C 
BRANCH  17  20
ATOM     18  C   UNL     1      -6.809  19.085  68.909  0.00  0.00    +0.026 C 
ATOM     19  C   UNL     1      -7.608  19.714  67.881  0.00  0.00    -0.048 C 
ATOM     20  C   UNL     1      -8.914  19.789  67.865  0.00  0.00    -0.032 C 
ATOM     21  C   UNL     1      -6.911  20.816  67.136  0.00  0.00    +0.026 C 
ENDBRANCH  17  20
ENDBRANCH  15  17
ENDBRANCH   1  15
TORSDOF 3
ENDMDL
MODEL 5
REMARK VINA RESULT:      -6.9      3.359      6.052
REMARK  Name = 
REMARK  3 active torsions:
REMARK  status: ('A' for Active; 'I' for Inactive)
REMARK    1  A    between atoms: C_4  and  C_5
REMARK    2  A    between atoms: C_5  and  C_6
REMARK    3  A    between atoms: C_6  and  C_8
REMARK                            x       y       z     vdW  Elec       q    Type
REMARK                         _______ _______ _______ _____ _____    ______ ____
ROOT
ATOM      1  C   UNL     1      -9.935  16.290  67.191  0.00  0.00    +0.050 C 
ATOM      2  C   UNL     1     -10.549  16.005  65.929  0.00  0.00    +0.197 C 
ATOM      3  O   UNL     1     -10.399  16.877  65.041  0.00  0.00    -0.287 OA
ATOM      4  C   UNL     1     -11.337  14.812  65.620  0.00  0.00    +0.084 A 
ATOM      5  C   UNL     1     -11.193  13.739  66.464  0.00  0.00    +0.084 A 
ATOM      6  C   UNL     1     -11.666  12.511  66.057  0.00  0.00    +0.199 A 
ATOM      7  C   UNL     1     -12.215  12.409  64.793  0.00  0.00    +0.045 A 
ATOM      8  C   UNL     1     -12.282  13.484  63.916  0.00  0.00    +0.045 A 
ATOM      9  O   UNL     1     -12.024  11.610  67.066  0.00  0.00    -0.286 OA
ATOM     10  C   UNL     1     -10.597  13.992  67.765  0.00  0.00    +0.199 C 
ATOM     11  O   UNL     1     -10.470  12.991  68.526  0.00  0.00    -0.286 OA
ATOM     12  C   UNL     1     -11.969  14.743  64.404  0.00  0.00    +0.199 A 
ATOM     13  O   UNL     1     -12.441  15.916  63.856  0.00  0.00    -0.286 OA
ATOM     14  C   UNL     1     -10.092  15.328  68.109  0.00  0.00    +0.043 C 
ENDROOT
BRANCH   1  15
ATOM     15  C   UNL     1      -8.415  16.862  67.193  0.00  0.00    +0.182 C 
ATOM     16  O   UNL     1      -7.869  15.544  67.729  0.00  0.00    -0.218 OA
BRANCH  15  17
ATOM     17  C   UNL     1      -8.458  17.507  68.715  0.00  0.00    +0.063 C 
BRANCH  17  20
ATOM     18  C   UNL     1      -7.634  20.543  67.259  0.00  0.00    +0.026 C 
ATOM     19  C   UNL     1      -8.749  19.646  67.459  0.00  0.00    -0.048 C 
ATOM     20  C   UNL     1      -8.931  18.869  68.496  0.00  0.00    -0.032 C 
ATOM     21  C   UNL     1     -10.013  20.055  66.757  0.00  0.00    +0.026 C 
ENDBRANCH  17  20
ENDBRANCH  15  17
ENDBRANCH   1  15
TORSDOF 3
ENDMDL
MODEL 6
REMARK VINA RESULT:      -6.8      2.313      5.626
REMARK  Name = 
REMARK  3 active torsions:
REMARK  status: ('A' for Active; 'I' for Inactive)
REMARK    1  A    between atoms: C_4  and  C_5
REMARK    2  A    between atoms: C_5  and  C_6
REMARK    3  A    between atoms: C_6  and  C_8
REMARK                            x       y       z     vdW  Elec       q    Type
REMARK                         _______ _______ _______ _____ _____    ______ ____
ROOT
ATOM      1  C   UNL     1     -11.366  13.138  67.937  0.00  0.00    +0.050 C 
ATOM      2  C   UNL     1     -10.974  14.412  68.460  0.00  0.00    +0.197 C 
ATOM      3  O   UNL     1     -10.649  14.427  69.672  0.00  0.00    -0.287 OA
ATOM      4  C   UNL     1     -10.950  15.667  67.708  0.00  0.00    +0.084 A 
ATOM      5  C   UNL     1     -10.963  15.568  66.340  0.00  0.00    +0.084 A 
ATOM      6  C   UNL     1     -10.639  16.681  65.594  0.00  0.00    +0.199 A 
ATOM      7  C   UNL     1     -10.263  17.829  66.266  0.00  0.00    +0.045 A 
ATOM      8  C   UNL     1     -10.175  17.894  67.650  0.00  0.00    +0.045 A 
ATOM      9  O   UNL     1     -11.176  16.751  64.304  0.00  0.00    -0.286 OA
ATOM     10  C   UNL     1     -11.379  14.298  65.769  0.00  0.00    +0.199 C 
ATOM     11  O   UNL     1     -11.382  14.227  64.506  0.00  0.00    -0.286 OA
ATOM     12  C   UNL     1     -10.674  16.830  68.385  0.00  0.00    +0.199 A 
ATOM     13  O   UNL     1     -11.108  16.934  69.688  0.00  0.00    -0.286 OA
ATOM     14  C   UNL     1     -11.680  13.152  66.635  0.00  0.00    +0.043 C 
ENDROOT
BRANCH   1  15
ATOM     15  C   UNL     1     -10.456  11.844  68.308  0.00  0.00    +0.182 C 
ATOM     16  O   UNL     1     -10.473  11.358  66.863  0.00  0.00    -0.218 OA
BRANCH  15  17
ATOM     17  C   UNL     1     -11.710  10.840  68.701  0.00  0.00    +0.063 C 
BRANCH  17  20
ATOM     18  C   UNL     1     -12.973  12.413  71.520  0.00  0.00    +0.026 C 
ATOM     19  C   UNL     1     -12.660  11.103  70.996  0.00  0.00    -0.048 C 
ATOM     20  C   UNL     1     -11.692  10.824  70.159  0.00  0.00    -0.032 C 
ATOM     21  C   UNL     1     -13.063   9.961  71.885  0.00  0.00    +0.026 C 
ENDBRANCH  17  20
ENDBRANCH  15  17
ENDBRANCH   1  15
TORSDOF 3
ENDMDL
MODEL 7
REMARK VINA RESULT:      -6.6      4.344      6.411
REMARK  Name = 
REMARK  3 active torsions:
REMARK  status: ('A' for Active; 'I' for Inactive)
REMARK    1  A    between atoms: C_4  and  C_5
REMARK    2  A    between atoms: C_5  and  C_6
REMARK    3  A    between atoms: C_6  and  C_8
REMARK                            x       y       z     vdW  Elec       q    Type
REMARK                         _______ _______ _______ _____ _____    ______ ____
ROOT
ATOM      1  C   UNL     1      -9.443  15.435  66.482  0.00  0.00    +0.050 C 
ATOM      2  C   UNL     1     -10.353  15.191  65.403  0.00  0.00    +0.197 C 
ATOM      3  O   UNL     1     -10.718  16.203  64.758  0.00  0.00    -0.287 OA
ATOM      4  C   UNL     1     -10.889  13.883  65.027  0.00  0.00    +0.084 A 
ATOM      5  C   UNL     1     -10.222  12.781  65.500  0.00  0.00    +0.084 A 
ATOM      6  C   UNL     1     -10.495  11.553  64.938  0.00  0.00    +0.199 A 
ATOM      7  C   UNL     1     -11.389  11.500  63.886  0.00  0.00    +0.045 A 
ATOM      8  C   UNL     1     -11.997  12.633  63.361  0.00  0.00    +0.045 A 
ATOM      9  O   UNL     1     -10.273  10.431  65.744  0.00  0.00    -0.286 OA
ATOM     10  C   UNL     1      -9.309  12.984  66.612  0.00  0.00    +0.199 C 
ATOM     11  O   UNL     1      -8.702  11.957  67.031  0.00  0.00    -0.286 OA
ATOM     12  C   UNL     1     -11.852  13.828  64.049  0.00  0.00    +0.199 A 
ATOM     13  O   UNL     1     -12.744  14.875  63.965  0.00  0.00    -0.286 OA
ATOM     14  C   UNL     1      -9.053  14.332  67.133  0.00  0.00    +0.043 C 
ENDROOT
BRANCH   1  15
ATOM     15  C   UNL     1      -8.191  16.436  66.218  0.00  0.00    +0.182 C 
ATOM     16  O   UNL     1      -7.241  15.527  66.989  0.00  0.00    -0.218 OA
BRANCH  15  17
ATOM     17  C   UNL     1      -8.425  17.386  67.551  0.00  0.00    +0.063 C 
BRANCH  17  20
ATOM     18  C   UNL     1     -10.649  19.402  65.817  0.00  0.00    +0.026 C 
ATOM     19  C   UNL     1      -9.702  19.434  66.907  0.00  0.00    -0.048 C 
ATOM     20  C   UNL     1      -8.607  18.721  66.993  0.00  0.00    -0.032 C 
ATOM     21  C   UNL     1      -9.659  20.734  67.660  0.00  0.00    +0.026 C 
ENDBRANCH  17  20
ENDBRANCH  15  17
ENDBRANCH   1  15
TORSDOF 3
ENDMDL
MODEL 8
REMARK VINA RESULT:      -6.5      1.720      2.744
REMARK  Name = 
REMARK  3 active torsions:
REMARK  status: ('A' for Active; 'I' for Inactive)
REMARK    1  A    between atoms: C_4  and  C_5
REMARK    2  A    between atoms: C_5  and  C_6
REMARK    3  A    between atoms: C_6  and  C_8
REMARK                            x       y       z     vdW  Elec       q    Type
REMARK                         _______ _______ _______ _____ _____    ______ ____
ROOT
ATOM      1  C   UNL     1     -10.932  14.407  68.371  0.00  0.00    +0.050 C 
ATOM      2  C   UNL     1     -11.553  15.093  69.464  0.00  0.00    +0.197 C 
ATOM      3  O   UNL     1     -11.584  16.344  69.376  0.00  0.00    -0.287 OA
ATOM      4  C   UNL     1     -12.117  14.456  70.655  0.00  0.00    +0.084 A 
ATOM      5  C   UNL     1     -12.386  13.114  70.569  0.00  0.00    +0.084 A 
ATOM      6  C   UNL     1     -13.185  12.538  71.533  0.00  0.00    +0.199 A 
ATOM      7  C   UNL     1     -13.721  13.355  72.510  0.00  0.00    +0.045 A 
ATOM      8  C   UNL     1     -13.508  14.727  72.540  0.00  0.00    +0.045 A 
ATOM      9  O   UNL     1     -13.000  11.171  71.767  0.00  0.00    -0.286 OA
ATOM     10  C   UNL     1     -11.755  12.376  69.487  0.00  0.00    +0.199 C 
ATOM     11  O   UNL     1     -12.017  11.141  69.424  0.00  0.00    -0.286 OA
ATOM     12  C   UNL     1     -12.563  15.258  71.676  0.00  0.00    +0.199 A 
ATOM     13  O   UNL     1     -11.895  16.442  71.904  0.00  0.00    -0.286 OA
ATOM     14  C   UNL     1     -10.939  13.073  68.484  0.00  0.00    +0.043 C 
ENDROOT
BRANCH   1  15
ATOM     15  C   UNL     1     -11.309  14.871  66.861  0.00  0.00    +0.182 C 
ATOM     16  O   UNL     1     -11.496  13.426  66.412  0.00  0.00    -0.218 OA
BRANCH  15  17
ATOM     17  C   UNL     1      -9.761  14.893  66.279  0.00  0.00    +0.063 C 
BRANCH  17  20
ATOM     18  C   UNL     1      -7.235  17.257  66.069  0.00  0.00    +0.026 C 
ATOM     19  C   UNL     1      -8.615  17.103  66.473  0.00  0.00    -0.048 C 
ATOM     20  C   UNL     1      -9.149  16.018  66.975  0.00  0.00    -0.032 C 
ATOM     21  C   UNL     1      -9.292  18.379  66.883  0.00  0.00    +0.026 C 
ENDBRANCH  17  20
ENDBRANCH  15  17
ENDBRANCH   1  15
TORSDOF 3
ENDMDL
MODEL 9
REMARK VINA RESULT:      -6.4      2.908      7.046
REMARK  Name = 
REMARK  3 active torsions:
REMARK  status: ('A' for Active; 'I' for Inactive)
REMARK    1  A    between atoms: C_4  and  C_5
REMARK    2  A    between atoms: C_5  and  C_6
REMARK    3  A    between atoms: C_6  and  C_8
REMARK                            x       y       z     vdW  Elec       q    Type
REMARK                         _______ _______ _______ _____ _____    ______ ____
ROOT
ATOM      1  C   UNL     1     -11.053  11.378  68.415  0.00  0.00    +0.050 C 
ATOM      2  C   UNL     1     -10.898  10.816  67.106  0.00  0.00    +0.197 C 
ATOM      3  O   UNL     1     -10.661   9.585  67.066  0.00  0.00    -0.287 OA
ATOM      4  C   UNL     1     -10.971  11.561  65.850  0.00  0.00    +0.084 A 
ATOM      5  C   UNL     1     -11.567  12.797  65.897  0.00  0.00    +0.084 A 
ATOM      6  C   UNL     1     -11.931  13.399  64.712  0.00  0.00    +0.199 A 
ATOM      7  C   UNL     1     -11.726  12.704  63.536  0.00  0.00    +0.045 A 
ATOM      8  C   UNL     1     -11.197  11.420  63.507  0.00  0.00    +0.045 A 
ATOM      9  O   UNL     1     -11.997  14.797  64.714  0.00  0.00    -0.286 OA
ATOM     10  C   UNL     1     -11.720  13.412  67.205  0.00  0.00    +0.199 C 
ATOM     11  O   UNL     1     -12.273  14.548  67.227  0.00  0.00    -0.286 OA
ATOM     12  C   UNL     1     -10.673  10.904  64.682  0.00  0.00    +0.199 A 
ATOM     13  O   UNL     1      -9.711   9.919  64.725  0.00  0.00    -0.286 OA
ATOM     14  C   UNL     1     -11.331  12.688  68.421  0.00  0.00    +0.043 C 
ENDROOT
BRANCH   1  15
ATOM     15  C   UNL     1     -11.970  10.577  69.490  0.00  0.00    +0.182 C 
ATOM     16  O   UNL     1     -12.031  11.788  70.413  0.00  0.00    -0.218 OA
BRANCH  15  17
ATOM     17  C   UNL     1     -10.721   9.929  70.358  0.00  0.00    +0.063 C 
BRANCH  17  20
ATOM     18  C   UNL     1     -12.641   7.206  71.314  0.00  0.00    +0.026 C 
ATOM     19  C   UNL     1     -11.540   8.030  71.758  0.00  0.00    -0.048 C 
ATOM     20  C   UNL     1     -11.382   9.303  71.497  0.00  0.00    -0.032 C 
ATOM     21  C   UNL     1     -10.889   7.570  73.031  0.00  0.00    +0.026 C 
ENDBRANCH  17  20
ENDBRANCH  15  17
ENDBRANCH   1  15
TORSDOF 3
ENDMDL
