MODEL 1
REMARK VINA RESULT:      -8.3      0.000      0.000
REMARK  Name = 
REMARK  2 active torsions:
REMARK  status: ('A' for Active; 'I' for Inactive)
REMARK    1  A    between atoms: C_8  and  C_10
REMARK    2  A    between atoms: C_10  and  C_12
REMARK                            x       y       z     vdW  Elec       q    Type
REMARK                         _______ _______ _______ _____ _____    ______ ____
ROOT
ATOM      1  C   UNL     1     -10.110   6.845  67.058  0.00  0.00    +0.004 C 
ATOM      2  C   UNL     1      -9.419   8.274  67.560  0.00  0.00    +0.019 C 
ATOM      3  C   UNL     1     -10.571   8.469  68.704  0.00  0.00    -0.038 C 
ATOM      4  C   UNL     1     -10.532   9.893  69.134  0.00  0.00    +0.036 C 
ATOM      5  C   UNL     1     -11.351  10.047  70.348  0.00  0.00    -0.020 C 
ATOM      6  C   UNL     1     -10.937   9.311  71.381  0.00  0.00    +0.038 C 
ATOM      7  C   UNL     1     -10.613   7.914  71.058  0.00  0.00    +0.195 C 
ATOM      8  O   UNL     1     -10.528   7.093  71.995  0.00  0.00    -0.287 OA
ATOM      9  C   UNL     1      -9.158  10.333  69.265  0.00  0.00    +0.009 C 
ATOM     10  C   UNL     1     -11.330  10.604  67.926  0.00  0.00    +0.038 C 
ATOM     11  C   UNL     1     -10.001  10.651  66.887  0.00  0.00    +0.003 C 
ATOM     12  C   UNL     1     -11.038  11.180  65.631  0.00  0.00    +0.003 C 
ATOM     13  C   UNL     1     -10.970  12.736  66.132  0.00  0.00    +0.035 C 
ATOM     14  C   UNL     1     -11.795  12.950  67.249  0.00  0.00    +0.036 C 
ATOM     15  C   UNL     1      -9.628  13.289  65.946  0.00  0.00    +0.003 C 
ATOM     16  C   UNL     1     -11.669  13.103  64.830  0.00  0.00    +0.180 C 
ATOM     17  O   UNL     1     -12.824  12.362  64.638  0.00  0.00    -0.218 OA
ATOM     18  C   UNL     1     -10.593  12.626  63.856  0.00  0.00    +0.038 C 
ATOM     19  C   UNL     1      -9.847  11.484  64.544  0.00  0.00    +0.003 C 
ATOM     20  C   UNL     1     -11.168  12.194  68.603  0.00  0.00    +0.153 C 
ATOM     21  O   UNL     1      -9.704  12.414  68.188  0.00  0.00    -0.223 OA
ATOM     22  C   UNL     1     -10.511   7.524  69.643  0.00  0.00    +0.034 C 
ATOM     23  C   UNL     1     -10.284   9.125  66.433  0.00  0.00    +0.004 C 
ENDROOT
BRANCH  16  24
ATOM     24  C   UNL     1     -11.931  14.541  64.692  0.00  0.00    +0.211 C 
ATOM     25  O   UNL     1     -13.001  14.880  64.190  0.00  0.00    -0.291 OA
BRANCH  24  26
ATOM     26  C   UNL     1     -10.941  15.621  64.925  0.00  0.00    +0.248 C 
ATOM     27  O   UNL     1     -11.295  16.779  64.221  0.00  0.00    -0.212 OA
ENDBRANCH  24  26
ENDBRANCH  16  24
TORSDOF 2
ENDMDL
MODEL 2
REMARK VINA RESULT:      -7.7      4.067      6.786
REMARK  Name = 
REMARK  2 active torsions:
REMARK  status: ('A' for Active; 'I' for Inactive)
REMARK    1  A    between atoms: C_8  and  C_10
REMARK    2  A    between atoms: C_10  and  C_12
REMARK                            x       y       z     vdW  Elec       q    Type
REMARK                         _______ _______ _______ _____ _____    ______ ____
ROOT
ATOM      1  C   UNL     1     -12.024  15.124  70.798  0.00  0.00    +0.004 C 
ATOM      2  C   UNL     1     -12.063  15.528  69.184  0.00  0.00    +0.019 C 
ATOM      3  C   UNL     1     -11.071  14.282  68.812  0.00  0.00    -0.038 C 
ATOM      4  C   UNL     1     -10.523  14.542  67.453  0.00  0.00    +0.036 C 
ATOM      5  C   UNL     1      -9.853  13.324  66.969  0.00  0.00    -0.020 C 
ATOM      6  C   UNL     1     -10.655  12.262  66.875  0.00  0.00    +0.038 C 
ATOM      7  C   UNL     1     -11.526  12.036  68.038  0.00  0.00    +0.195 C 
ATOM      8  O   UNL     1     -12.063  10.917  68.169  0.00  0.00    -0.287 OA
ATOM      9  C   UNL     1     -11.567  15.050  66.587  0.00  0.00    +0.009 C 
ATOM     10  C   UNL     1      -9.370  15.621  67.784  0.00  0.00    +0.038 C 
ATOM     11  C   UNL     1     -10.424  16.937  67.852  0.00  0.00    +0.003 C 
ATOM     12  C   UNL     1      -9.135  17.904  68.429  0.00  0.00    +0.003 C 
ATOM     13  C   UNL     1      -8.562  18.169  66.920  0.00  0.00    +0.035 C 
ATOM     14  C   UNL     1      -7.850  17.057  66.441  0.00  0.00    +0.036 C 
ATOM     15  C   UNL     1      -9.494  18.984  66.141  0.00  0.00    +0.003 C 
ATOM     16  C   UNL     1      -7.640  19.211  67.538  0.00  0.00    +0.180 C 
ATOM     17  O   UNL     1      -6.917  18.695  68.601  0.00  0.00    -0.218 OA
ATOM     18  C   UNL     1      -8.706  20.169  68.068  0.00  0.00    +0.038 C 
ATOM     19  C   UNL     1      -9.947  19.329  68.365  0.00  0.00    +0.003 C 
ATOM     20  C   UNL     1      -8.885  15.781  66.125  0.00  0.00    +0.153 C 
ATOM     21  O   UNL     1     -10.049  16.686  65.687  0.00  0.00    -0.223 OA
ATOM     22  C   UNL     1     -11.640  13.100  69.048  0.00  0.00    +0.034 C 
ATOM     23  C   UNL     1     -10.797  16.578  69.383  0.00  0.00    +0.004 C 
ENDROOT
BRANCH  16  24
ATOM     24  C   UNL     1      -6.757  19.864  66.563  0.00  0.00    +0.211 C 
ATOM     25  O   UNL     1      -6.813  21.088  66.474  0.00  0.00    -0.291 OA
BRANCH  24  26
ATOM     26  C   UNL     1      -5.943  19.164  65.539  0.00  0.00    +0.248 C 
ATOM     27  O   UNL     1      -6.437  19.420  64.253  0.00  0.00    -0.212 OA
ENDBRANCH  24  26
ENDBRANCH  16  24
TORSDOF 2
ENDMDL
MODEL 3
REMARK VINA RESULT:      -7.4      3.856      6.140
REMARK  Name = 
REMARK  2 active torsions:
REMARK  status: ('A' for Active; 'I' for Inactive)
REMARK    1  A    between atoms: C_8  and  C_10
REMARK    2  A    between atoms: C_10  and  C_12
REMARK                            x       y       z     vdW  Elec       q    Type
REMARK                         _______ _______ _______ _____ _____    ______ ____
ROOT
ATOM      1  C   UNL     1     -12.349  15.217  71.619  0.00  0.00    +0.004 C 
ATOM      2  C   UNL     1     -12.384  15.248  69.954  0.00  0.00    +0.019 C 
ATOM      3  C   UNL     1     -11.471  13.894  69.875  0.00  0.00    -0.038 C 
ATOM      4  C   UNL     1     -10.926  13.807  68.493  0.00  0.00    +0.036 C 
ATOM      5  C   UNL     1     -10.334  12.473  68.297  0.00  0.00    -0.020 C 
ATOM      6  C   UNL     1     -11.198  11.467  68.445  0.00  0.00    +0.038 C 
ATOM      7  C   UNL     1     -12.065  11.562  69.628  0.00  0.00    +0.195 C 
ATOM      8  O   UNL     1     -12.664  10.535  70.009  0.00  0.00    -0.287 OA
ATOM      9  C   UNL     1     -11.950  14.167  67.534  0.00  0.00    +0.009 C 
ATOM     10  C   UNL     1      -9.709  14.862  68.572  0.00  0.00    +0.038 C 
ATOM     11  C   UNL     1     -10.684  16.220  68.340  0.00  0.00    +0.003 C 
ATOM     12  C   UNL     1      -9.334  17.214  68.685  0.00  0.00    +0.003 C 
ATOM     13  C   UNL     1      -8.765  17.098  67.155  0.00  0.00    +0.035 C 
ATOM     14  C   UNL     1      -8.125  15.866  66.941  0.00  0.00    +0.036 C 
ATOM     15  C   UNL     1      -9.659  17.769  66.211  0.00  0.00    +0.003 C 
ATOM     16  C   UNL     1      -7.777  18.195  67.523  0.00  0.00    +0.180 C 
ATOM     17  O   UNL     1      -7.072  17.891  68.676  0.00  0.00    -0.218 OA
ATOM     18  C   UNL     1      -8.779  19.309  67.822  0.00  0.00    +0.038 C 
ATOM     19  C   UNL     1     -10.063  18.633  68.299  0.00  0.00    +0.003 C 
ATOM     20  C   UNL     1      -9.236  14.615  66.920  0.00  0.00    +0.153 C 
ATOM     21  O   UNL     1     -10.351  15.465  66.289  0.00  0.00    -0.223 OA
ATOM     22  C   UNL     1     -12.104  12.831  70.372  0.00  0.00    +0.034 C 
ATOM     23  C   UNL     1     -11.058  16.238  69.913  0.00  0.00    +0.004 C 
ENDROOT
BRANCH  16  24
ATOM     24  C   UNL     1      -6.870  18.558  66.426  0.00  0.00    +0.211 C 
ATOM     25  O   UNL     1      -7.373  18.943  65.373  0.00  0.00    -0.291 OA
BRANCH  24  26
ATOM     26  C   UNL     1      -5.406  18.317  66.408  0.00  0.00    +0.248 C 
ATOM     27  O   UNL     1      -5.122  17.019  65.963  0.00  0.00    -0.212 OA
ENDBRANCH  24  26
ENDBRANCH  16  24
TORSDOF 2
ENDMDL
MODEL 4
REMARK VINA RESULT:      -7.3      4.042      6.891
REMARK  Name = 
REMARK  2 active torsions:
REMARK  status: ('A' for Active; 'I' for Inactive)
REMARK    1  A    between atoms: C_8  and  C_10
REMARK    2  A    between atoms: C_10  and  C_12
REMARK                            x       y       z     vdW  Elec       q    Type
REMARK                         _______ _______ _______ _____ _____    ______ ____
ROOT
ATOM      1  C   UNL     1      -8.771  11.698  66.469  0.00  0.00    +0.004 C 
ATOM      2  C   UNL     1      -9.723  12.879  67.156  0.00  0.00    +0.019 C 
ATOM      3  C   UNL     1     -10.181  13.416  65.681  0.00  0.00    -0.038 C 
ATOM      4  C   UNL     1     -10.754  14.777  65.863  0.00  0.00    +0.036 C 
ATOM      5  C   UNL     1     -11.429  15.180  64.618  0.00  0.00    -0.020 C 
ATOM      6  C   UNL     1     -12.430  14.375  64.256  0.00  0.00    +0.038 C 
ATOM      7  C   UNL     1     -12.128  12.939  64.326  0.00  0.00    +0.195 C 
ATOM      8  O   UNL     1     -12.875  12.144  63.718  0.00  0.00    -0.287 OA
ATOM      9  C   UNL     1     -11.589  14.807  67.047  0.00  0.00    +0.009 C 
ATOM     10  C   UNL     1      -9.414  15.664  65.989  0.00  0.00    +0.038 C 
ATOM     11  C   UNL     1      -9.163  15.311  67.620  0.00  0.00    +0.003 C 
ATOM     12  C   UNL     1      -7.642  16.091  67.526  0.00  0.00    +0.003 C 
ATOM     13  C   UNL     1      -8.307  17.572  67.730  0.00  0.00    +0.035 C 
ATOM     14  C   UNL     1      -8.902  18.032  66.544  0.00  0.00    +0.036 C 
ATOM     15  C   UNL     1      -8.866  17.714  69.075  0.00  0.00    +0.003 C 
ATOM     16  C   UNL     1      -6.889  18.099  67.897  0.00  0.00    +0.180 C 
ATOM     17  O   UNL     1      -6.069  17.716  66.848  0.00  0.00    -0.218 OA
ATOM     18  C   UNL     1      -6.504  17.317  69.152  0.00  0.00    +0.038 C 
ATOM     19  C   UNL     1      -7.315  16.022  69.133  0.00  0.00    +0.003 C 
ATOM     20  C   UNL     1     -10.282  17.154  66.192  0.00  0.00    +0.153 C 
ATOM     21  O   UNL     1     -10.658  16.939  67.667  0.00  0.00    -0.223 OA
ATOM     22  C   UNL     1     -10.902  12.510  65.019  0.00  0.00    +0.034 C 
ATOM     23  C   UNL     1      -8.438  13.921  67.222  0.00  0.00    +0.004 C 
ENDROOT
BRANCH  16  24
ATOM     24  C   UNL     1      -6.826  19.550  68.118  0.00  0.00    +0.211 C 
ATOM     25  O   UNL     1      -6.558  19.943  69.250  0.00  0.00    -0.291 OA
BRANCH  24  26
ATOM     26  C   UNL     1      -7.248  20.585  67.142  0.00  0.00    +0.248 C 
ATOM     27  O   UNL     1      -6.287  21.601  67.051  0.00  0.00    -0.212 OA
ENDBRANCH  24  26
ENDBRANCH  16  24
TORSDOF 2
ENDMDL
MODEL 5
REMARK VINA RESULT:      -7.2      7.018      9.636
REMARK  Name = 
REMARK  2 active torsions:
REMARK  status: ('A' for Active; 'I' for Inactive)
REMARK    1  A    between atoms: C_8  and  C_10
REMARK    2  A    between atoms: C_10  and  C_12
REMARK                            x       y       z     vdW  Elec       q    Type
REMARK                         _______ _______ _______ _____ _____    ______ ____
ROOT
ATOM      1  C   UNL     1     -10.537  18.970  66.584  0.00  0.00    +0.004 C 
ATOM      2  C   UNL     1      -9.045  18.245  66.438  0.00  0.00    +0.019 C 
ATOM      3  C   UNL     1      -9.460  17.093  67.521  0.00  0.00    -0.038 C 
ATOM      4  C   UNL     1      -8.202  16.446  67.983  0.00  0.00    +0.036 C 
ATOM      5  C   UNL     1      -8.543  15.228  68.739  0.00  0.00    -0.020 C 
ATOM      6  C   UNL     1      -9.218  14.320  68.032  0.00  0.00    +0.038 C 
ATOM      7  C   UNL     1     -10.334  14.855  67.238  0.00  0.00    +0.195 C 
ATOM      8  O   UNL     1     -11.195  14.058  66.811  0.00  0.00    -0.287 OA
ATOM      9  C   UNL     1      -7.312  16.237  66.860  0.00  0.00    +0.009 C 
ATOM     10  C   UNL     1      -7.665  17.533  69.046  0.00  0.00    +0.038 C 
ATOM     11  C   UNL     1      -6.978  18.542  67.881  0.00  0.00    +0.003 C 
ATOM     12  C   UNL     1      -6.689  19.707  69.102  0.00  0.00    +0.003 C 
ATOM     13  C   UNL     1      -5.310  18.968  69.582  0.00  0.00    +0.035 C 
ATOM     14  C   UNL     1      -5.583  17.838  70.370  0.00  0.00    +0.036 C 
ATOM     15  C   UNL     1      -4.281  19.056  68.546  0.00  0.00    +0.003 C 
ATOM     16  C   UNL     1      -5.038  20.202  70.431  0.00  0.00    +0.180 C 
ATOM     17  O   UNL     1      -6.115  20.516  71.245  0.00  0.00    -0.218 OA
ATOM     18  C   UNL     1      -4.935  21.231  69.307  0.00  0.00    +0.038 C 
ATOM     19  C   UNL     1      -5.810  20.725  68.162  0.00  0.00    +0.003 C 
ATOM     20  C   UNL     1      -6.246  16.614  69.442  0.00  0.00    +0.153 C 
ATOM     21  O   UNL     1      -5.443  16.980  68.182  0.00  0.00    -0.223 OA
ATOM     22  C   UNL     1     -10.444  16.314  67.073  0.00  0.00    +0.034 C 
ATOM     23  C   UNL     1      -8.415  19.231  67.610  0.00  0.00    +0.004 C 
ENDROOT
BRANCH  16  24
ATOM     24  C   UNL     1      -3.795  20.115  71.208  0.00  0.00    +0.211 C 
ATOM     25  O   UNL     1      -3.890  19.946  72.421  0.00  0.00    -0.291 OA
BRANCH  24  26
ATOM     26  C   UNL     1      -2.436  20.408  70.688  0.00  0.00    +0.248 C 
ATOM     27  O   UNL     1      -1.938  21.594  71.244  0.00  0.00    -0.212 OA
ENDBRANCH  24  26
ENDBRANCH  16  24
TORSDOF 2
ENDMDL
MODEL 6
REMARK VINA RESULT:      -7.2      4.031      8.350
REMARK  Name = 
REMARK  2 active torsions:
REMARK  status: ('A' for Active; 'I' for Inactive)
REMARK    1  A    between atoms: C_8  and  C_10
REMARK    2  A    between atoms: C_10  and  C_12
REMARK                            x       y       z     vdW  Elec       q    Type
REMARK                         _______ _______ _______ _____ _____    ______ ____
ROOT
ATOM      1  C   UNL     1     -10.045  20.545  67.608  0.00  0.00    +0.004 C 
ATOM      2  C   UNL     1      -9.158  19.316  68.298  0.00  0.00    +0.019 C 
ATOM      3  C   UNL     1      -8.323  19.093  66.910  0.00  0.00    -0.038 C 
ATOM      4  C   UNL     1      -7.669  17.759  66.996  0.00  0.00    +0.036 C 
ATOM      5  C   UNL     1      -6.690  17.636  65.902  0.00  0.00    -0.020 C 
ATOM      6  C   UNL     1      -5.722  18.554  65.934  0.00  0.00    +0.038 C 
ATOM      7  C   UNL     1      -6.178  19.931  66.168  0.00  0.00    +0.195 C 
ATOM      8  O   UNL     1      -5.398  20.868  65.901  0.00  0.00    -0.287 OA
ATOM      9  C   UNL     1      -7.128  17.558  68.325  0.00  0.00    +0.009 C 
ATOM     10  C   UNL     1      -8.904  16.784  66.643  0.00  0.00    +0.038 C 
ATOM     11  C   UNL     1      -9.556  16.811  68.199  0.00  0.00    +0.003 C 
ATOM     12  C   UNL     1     -10.926  15.972  67.610  0.00  0.00    +0.003 C 
ATOM     13  C   UNL     1     -10.176  14.522  67.720  0.00  0.00    +0.035 C 
ATOM     14  C   UNL     1      -9.283  14.328  66.653  0.00  0.00    +0.036 C 
ATOM     15  C   UNL     1      -9.928  14.165  69.116  0.00  0.00    +0.003 C 
ATOM     16  C   UNL     1     -11.533  13.888  67.447  0.00  0.00    +0.180 C 
ATOM     17  O   UNL     1     -12.128  14.410  66.309  0.00  0.00    -0.218 OA
ATOM     18  C   UNL     1     -12.272  14.398  68.683  0.00  0.00    +0.038 C 
ATOM     19  C   UNL     1     -11.616  15.720  69.078  0.00  0.00    +0.003 C 
ATOM     20  C   UNL     1      -7.957  15.338  66.799  0.00  0.00    +0.153 C 
ATOM     21  O   UNL     1      -7.951  15.296  68.336  0.00  0.00    -0.223 OA
ATOM     22  C   UNL     1      -7.567  20.148  66.604  0.00  0.00    +0.034 C 
ATOM     23  C   UNL     1     -10.310  18.204  67.875  0.00  0.00    +0.004 C 
ENDROOT
BRANCH  16  24
ATOM     24  C   UNL     1     -11.495  12.421  67.400  0.00  0.00    +0.211 C 
ATOM     25  O   UNL     1     -11.875  11.874  66.367  0.00  0.00    -0.291 OA
BRANCH  24  26
ATOM     26  C   UNL     1     -11.223  11.532  68.556  0.00  0.00    +0.248 C 
ATOM     27  O   UNL     1     -12.390  10.868  68.956  0.00  0.00    -0.212 OA
ENDBRANCH  24  26
ENDBRANCH  16  24
TORSDOF 2
ENDMDL
MODEL 7
REMARK VINA RESULT:      -7.1      1.864      6.824
REMARK  Name = 
REMARK  2 active torsions:
REMARK  status: ('A' for Active; 'I' for Inactive)
REMARK    1  A    between atoms: C_8  and  C_10
REMARK    2  A    between atoms: C_10  and  C_12
REMARK                            x       y       z     vdW  Elec       q    Type
REMARK                         _______ _______ _______ _____ _____    ______ ____
ROOT
ATOM      1  C   UNL     1     -12.110  12.218  63.503  0.00  0.00    +0.004 C 
ATOM      2  C   UNL     1     -12.163  12.506  65.142  0.00  0.00    +0.019 C 
ATOM      3  C   UNL     1     -10.977  13.626  65.019  0.00  0.00    -0.038 C 
ATOM      4  C   UNL     1     -10.436  13.850  66.387  0.00  0.00    +0.036 C 
ATOM      5  C   UNL     1      -9.569  15.040  66.367  0.00  0.00    -0.020 C 
ATOM      6  C   UNL     1     -10.192  16.161  66.000  0.00  0.00    +0.038 C 
ATOM      7  C   UNL     1     -11.051  16.035  64.813  0.00  0.00    +0.195 C 
ATOM      8  O   UNL     1     -11.409  17.076  64.226  0.00  0.00    -0.287 OA
ATOM      9  C   UNL     1     -11.521  13.901  67.345  0.00  0.00    +0.009 C 
ATOM     10  C   UNL     1      -9.478  12.564  66.557  0.00  0.00    +0.038 C 
ATOM     11  C   UNL     1     -10.727  11.512  66.984  0.00  0.00    +0.003 C 
ATOM     12  C   UNL     1      -9.623  10.207  66.888  0.00  0.00    +0.003 C 
ATOM     13  C   UNL     1      -9.054  10.483  68.397  0.00  0.00    +0.035 C 
ATOM     14  C   UNL     1      -8.162  11.569  68.416  0.00  0.00    +0.036 C 
ATOM     15  C   UNL     1     -10.079  10.204  69.403  0.00  0.00    +0.003 C 
ATOM     16  C   UNL     1      -8.326   9.151  68.281  0.00  0.00    +0.180 C 
ATOM     17  O   UNL     1      -7.563   9.079  67.126  0.00  0.00    -0.218 OA
ATOM     18  C   UNL     1      -9.545   8.241  68.140  0.00  0.00    +0.038 C 
ATOM     19  C   UNL     1     -10.647   9.073  67.488  0.00  0.00    +0.003 C 
ATOM     20  C   UNL     1      -8.974  13.008  68.158  0.00  0.00    +0.153 C 
ATOM     21  O   UNL     1     -10.252  12.548  68.879  0.00  0.00    -0.223 OA
ATOM     22  C   UNL     1     -11.360  14.687  64.309  0.00  0.00    +0.034 C 
ATOM     23  C   UNL     1     -11.085  11.281  65.424  0.00  0.00    +0.004 C 
ENDROOT
BRANCH  16  24
ATOM     24  C   UNL     1      -7.527   8.815  69.466  0.00  0.00    +0.211 C 
ATOM     25  O   UNL     1      -6.310   8.964  69.395  0.00  0.00    -0.291 OA
BRANCH  24  26
ATOM     26  C   UNL     1      -8.038   8.127  70.678  0.00  0.00    +0.248 C 
ATOM     27  O   UNL     1      -7.816   8.907  71.821  0.00  0.00    -0.212 OA
ENDBRANCH  24  26
ENDBRANCH  16  24
TORSDOF 2
ENDMDL
MODEL 8
REMARK VINA RESULT:      -7.0      3.995      6.901
REMARK  Name = 
REMARK  2 active torsions:
REMARK  status: ('A' for Active; 'I' for Inactive)
REMARK    1  A    between atoms: C_8  and  C_10
REMARK    2  A    between atoms: C_10  and  C_12
REMARK                            x       y       z     vdW  Elec       q    Type
REMARK                         _______ _______ _______ _____ _____    ______ ____
ROOT
ATOM      1  C   UNL     1      -6.054  15.120  70.238  0.00  0.00    +0.004 C 
ATOM      2  C   UNL     1      -6.300  15.500  68.636  0.00  0.00    +0.019 C 
ATOM      3  C   UNL     1      -7.115  16.857  69.047  0.00  0.00    -0.038 C 
ATOM      4  C   UNL     1      -7.876  17.297  67.846  0.00  0.00    +0.036 C 
ATOM      5  C   UNL     1      -8.397  18.654  68.082  0.00  0.00    -0.020 C 
ATOM      6  C   UNL     1      -7.451  19.568  68.307  0.00  0.00    +0.038 C 
ATOM      7  C   UNL     1      -6.407  19.160  69.259  0.00  0.00    +0.195 C 
ATOM      8  O   UNL     1      -5.681  20.044  69.759  0.00  0.00    -0.287 OA
ATOM      9  C   UNL     1      -7.055  17.156  66.661  0.00  0.00    +0.009 C 
ATOM     10  C   UNL     1      -9.135  16.289  67.889  0.00  0.00    +0.038 C 
ATOM     11  C   UNL     1      -8.311  15.004  67.169  0.00  0.00    +0.003 C 
ATOM     12  C   UNL     1      -9.652  13.994  67.504  0.00  0.00    +0.003 C 
ATOM     13  C   UNL     1     -10.458  14.500  66.173  0.00  0.00    +0.035 C 
ATOM     14  C   UNL     1     -11.036  15.764  66.377  0.00  0.00    +0.036 C 
ATOM     15  C   UNL     1      -9.785  14.057  64.952  0.00  0.00    +0.003 C 
ATOM     16  C   UNL     1     -11.447  13.373  66.441  0.00  0.00    +0.180 C 
ATOM     17  O   UNL     1     -11.926  13.404  67.740  0.00  0.00    -0.218 OA
ATOM     18  C   UNL     1     -10.490  12.192  66.282  0.00  0.00    +0.038 C 
ATOM     19  C   UNL     1      -9.100  12.694  66.668  0.00  0.00    +0.003 C 
ATOM     20  C   UNL     1      -9.858  16.949  66.456  0.00  0.00    +0.153 C 
ATOM     21  O   UNL     1      -8.928  16.251  65.450  0.00  0.00    -0.223 OA
ATOM     22  C   UNL     1      -6.334  17.746  69.660  0.00  0.00    +0.034 C 
ATOM     23  C   UNL     1      -7.682  14.588  68.599  0.00  0.00    +0.004 C 
ENDROOT
BRANCH  16  24
ATOM     24  C   UNL     1     -12.548  13.318  65.471  0.00  0.00    +0.211 C 
ATOM     25  O   UNL     1     -13.523  14.038  65.673  0.00  0.00    -0.291 OA
BRANCH  24  26
ATOM     26  C   UNL     1     -12.675  12.329  64.372  0.00  0.00    +0.248 C 
ATOM     27  O   UNL     1     -12.488  12.945  63.127  0.00  0.00    -0.212 OA
ENDBRANCH  24  26
ENDBRANCH  16  24
TORSDOF 2
ENDMDL
MODEL 9
REMARK VINA RESULT:      -6.8      3.522      7.324
REMARK  Name = 
REMARK  2 active torsions:
REMARK  status: ('A' for Active; 'I' for Inactive)
REMARK    1  A    between atoms: C_8  and  C_10
REMARK    2  A    between atoms: C_10  and  C_12
REMARK                            x       y       z     vdW  Elec       q    Type
REMARK                         _______ _______ _______ _____ _____    ______ ____
ROOT
ATOM      1  C   UNL     1     -10.516  19.363  65.933  0.00  0.00    +0.004 C 
ATOM      2  C   UNL     1     -10.564  18.276  67.193  0.00  0.00    +0.019 C 
ATOM      3  C   UNL     1      -8.935  18.134  67.180  0.00  0.00    -0.038 C 
ATOM      4  C   UNL     1      -8.592  16.899  67.936  0.00  0.00    +0.036 C 
ATOM      5  C   UNL     1      -7.141  16.883  68.187  0.00  0.00    -0.020 C 
ATOM      6  C   UNL     1      -6.700  17.920  68.903  0.00  0.00    +0.038 C 
ATOM      7  C   UNL     1      -7.212  19.230  68.477  0.00  0.00    +0.195 C 
ATOM      8  O   UNL     1      -6.621  20.256  68.874  0.00  0.00    -0.287 OA
ATOM      9  C   UNL     1      -9.417  16.800  69.122  0.00  0.00    +0.009 C 
ATOM     10  C   UNL     1      -8.898  15.764  66.832  0.00  0.00    +0.038 C 
ATOM     11  C   UNL     1     -10.562  15.739  67.114  0.00  0.00    +0.003 C 
ATOM     12  C   UNL     1     -10.747  14.714  65.755  0.00  0.00    +0.003 C 
ATOM     13  C   UNL     1     -10.367  13.378  66.618  0.00  0.00    +0.035 C 
ATOM     14  C   UNL     1      -8.980  13.280  66.822  0.00  0.00    +0.036 C 
ATOM     15  C   UNL     1     -11.397  13.086  67.614  0.00  0.00    +0.003 C 
ATOM     16  C   UNL     1     -10.823  12.566  65.414  0.00  0.00    +0.180 C 
ATOM     17  O   UNL     1     -10.204  12.981  64.246  0.00  0.00    -0.218 OA
ATOM     18  C   UNL     1     -12.288  13.001  65.392  0.00  0.00    +0.038 C 
ATOM     19  C   UNL     1     -12.342  14.405  65.990  0.00  0.00    +0.003 C 
ATOM     20  C   UNL     1      -8.451  14.458  67.886  0.00  0.00    +0.153 C 
ATOM     21  O   UNL     1      -9.746  14.450  68.715  0.00  0.00    -0.223 OA
ATOM     22  C   UNL     1      -8.330  19.272  67.520  0.00  0.00    +0.034 C 
ATOM     23  C   UNL     1     -10.760  17.014  66.140  0.00  0.00    +0.004 C 
ENDROOT
BRANCH  16  24
ATOM     24  C   UNL     1     -10.687  11.116  65.600  0.00  0.00    +0.211 C 
ATOM     25  O   UNL     1     -11.203  10.618  66.598  0.00  0.00    -0.291 OA
BRANCH  24  26
ATOM     26  C   UNL     1      -9.817  10.225  64.793  0.00  0.00    +0.248 C 
ATOM     27  O   UNL     1      -9.489   9.068  65.513  0.00  0.00    -0.212 OA
ENDBRANCH  24  26
ENDBRANCH  16  24
TORSDOF 2
ENDMDL
