MODEL 1
REMARK VINA RESULT:      -7.3      0.000      0.000
REMARK  Name = 
REMARK  6 active torsions:
REMARK  status: ('A' for Active; 'I' for Inactive)
REMARK    1  A    between atoms: O_2  and  C_3
REMARK    2  A    between atoms: C_6  and  C_7
REMARK    3  A    between atoms: C_7  and  C_9
REMARK    4  A    between atoms: C_9  and  C_10
REMARK    5  A    between atoms: C_10  and  C_12
REMARK    6  A    between atoms: C_15  and  C_16
REMARK                            x       y       z     vdW  Elec       q    Type
REMARK                         _______ _______ _______ _____ _____    ______ ____
ROOT
ATOM      1  C   UNL     1     -10.805  16.958  67.641  0.00  0.00    +0.181 C 
ATOM      2  O   UNL     1     -11.007  18.202  67.645  0.00  0.00    -0.291 OA
ENDROOT
BRANCH   1   3
ATOM      3  C   UNL     1     -11.194  16.143  68.770  0.00  0.00    +0.035 A 
ATOM      4  C   UNL     1     -10.891  16.485  70.073  0.00  0.00    +0.003 A 
ATOM      5  C   UNL     1     -11.434  15.779  71.139  0.00  0.00    -0.004 A 
ATOM      6  C   UNL     1     -12.232  14.661  70.933  0.00  0.00    -0.023 A 
ATOM      7  C   UNL     1     -12.185  14.118  69.657  0.00  0.00    -0.004 A 
ATOM      8  C   UNL     1     -11.816  14.920  68.584  0.00  0.00    +0.003 A 
BRANCH   6   9
ATOM      9  C   UNL     1     -13.298  14.348  71.911  0.00  0.00    +0.019 C 
ATOM     10  C   UNL     1     -14.611  15.039  71.562  0.00  0.00    +0.004 C 
ATOM     11  C   UNL     1     -13.500  12.867  72.094  0.00  0.00    +0.004 C 
ATOM     12  C   UNL     1     -12.877  14.915  73.260  0.00  0.00    +0.004 C 
ENDBRANCH   6   9
ENDBRANCH   1   3
BRANCH   1  13
ATOM     13  C   UNL     1      -9.776  16.431  66.723  0.00  0.00    +0.138 C 
BRANCH  13  14
ATOM     14  C   UNL     1     -10.320  16.066  65.393  0.00  0.00    +0.181 C 
ATOM     15  O   UNL     1     -10.963  16.975  64.786  0.00  0.00    -0.291 OA
BRANCH  14  19
ATOM     16  C   UNL     1     -11.639  12.238  66.125  0.00  0.00    +0.139 A 
ATOM     17  C   UNL     1     -12.498  13.069  65.417  0.00  0.00    +0.037 A 
ATOM     18  C   UNL     1     -12.070  14.327  65.007  0.00  0.00    +0.006 A 
ATOM     19  C   UNL     1     -10.740  14.690  65.109  0.00  0.00    +0.035 A 
ATOM     20  C   UNL     1      -9.855  13.652  65.372  0.00  0.00    +0.006 A 
ATOM     21  C   UNL     1     -10.286  12.427  65.867  0.00  0.00    +0.037 A 
BRANCH  16  23
ATOM     22  C   UNL     1     -11.198  10.893  68.146  0.00  0.00    +0.252 C 
ATOM     23  O   UNL     1     -12.080  11.428  67.169  0.00  0.00    -0.471 OA
ENDBRANCH  16  23
ENDBRANCH  14  19
ENDBRANCH  13  14
ENDBRANCH   1  13
TORSDOF 6
ENDMDL
MODEL 2
REMARK VINA RESULT:      -6.8      1.373      1.917
REMARK  Name = 
REMARK  6 active torsions:
REMARK  status: ('A' for Active; 'I' for Inactive)
REMARK    1  A    between atoms: O_2  and  C_3
REMARK    2  A    between atoms: C_6  and  C_7
REMARK    3  A    between atoms: C_7  and  C_9
REMARK    4  A    between atoms: C_9  and  C_10
REMARK    5  A    between atoms: C_10  and  C_12
REMARK    6  A    between atoms: C_15  and  C_16
REMARK                            x       y       z     vdW  Elec       q    Type
REMARK                         _______ _______ _______ _____ _____    ______ ____
ROOT
ATOM      1  C   UNL     1     -10.818  16.847  67.603  0.00  0.00    +0.181 C 
ATOM      2  O   UNL     1     -11.000  18.093  67.561  0.00  0.00    -0.291 OA
ENDROOT
BRANCH   1   3
ATOM      3  C   UNL     1     -11.227  16.079  68.759  0.00  0.00    +0.035 A 
ATOM      4  C   UNL     1     -10.922  16.462  70.051  0.00  0.00    +0.003 A 
ATOM      5  C   UNL     1     -11.482  15.805  71.139  0.00  0.00    -0.004 A 
ATOM      6  C   UNL     1     -12.301  14.696  70.969  0.00  0.00    -0.023 A 
ATOM      7  C   UNL     1     -12.259  14.108  69.713  0.00  0.00    -0.004 A 
ATOM      8  C   UNL     1     -11.871  14.864  68.614  0.00  0.00    +0.003 A 
BRANCH   6   9
ATOM      9  C   UNL     1     -13.375  14.438  71.953  0.00  0.00    +0.019 C 
ATOM     10  C   UNL     1     -14.693  15.083  71.538  0.00  0.00    +0.004 C 
ATOM     11  C   UNL     1     -13.560  12.972  72.240  0.00  0.00    +0.004 C 
ATOM     12  C   UNL     1     -12.982  15.108  73.263  0.00  0.00    +0.004 C 
ENDBRANCH   6   9
ENDBRANCH   1   3
BRANCH   1  13
ATOM     13  C   UNL     1      -9.792  16.270  66.711  0.00  0.00    +0.138 C 
BRANCH  13  14
ATOM     14  C   UNL     1     -10.357  15.747  65.444  0.00  0.00    +0.181 C 
ATOM     15  O   UNL     1     -10.916  16.598  64.690  0.00  0.00    -0.291 OA
BRANCH  14  19
ATOM     16  C   UNL     1     -10.954  11.942  63.996  0.00  0.00    +0.139 A 
ATOM     17  C   UNL     1     -10.303  12.049  65.219  0.00  0.00    +0.037 A 
ATOM     18  C   UNL     1     -10.191  13.287  65.842  0.00  0.00    +0.006 A 
ATOM     19  C   UNL     1     -10.891  14.382  65.371  0.00  0.00    +0.035 A 
ATOM     20  C   UNL     1     -11.890  14.102  64.448  0.00  0.00    +0.006 A 
ATOM     21  C   UNL     1     -11.941  12.893  63.765  0.00  0.00    +0.037 A 
BRANCH  16  23
ATOM     22  C   UNL     1      -9.147  11.006  62.601  0.00  0.00    +0.252 C 
ATOM     23  O   UNL     1     -10.510  11.087  62.990  0.00  0.00    -0.471 OA
ENDBRANCH  16  23
ENDBRANCH  14  19
ENDBRANCH  13  14
ENDBRANCH   1  13
TORSDOF 6
ENDMDL
MODEL 3
REMARK VINA RESULT:      -6.7      2.370      4.950
REMARK  Name = 
REMARK  6 active torsions:
REMARK  status: ('A' for Active; 'I' for Inactive)
REMARK    1  A    between atoms: O_2  and  C_3
REMARK    2  A    between atoms: C_6  and  C_7
REMARK    3  A    between atoms: C_7  and  C_9
REMARK    4  A    between atoms: C_9  and  C_10
REMARK    5  A    between atoms: C_10  and  C_12
REMARK    6  A    between atoms: C_15  and  C_16
REMARK                            x       y       z     vdW  Elec       q    Type
REMARK                         _______ _______ _______ _____ _____    ______ ____
ROOT
ATOM      1  C   UNL     1     -11.326  14.732  66.912  0.00  0.00    +0.181 C 
ATOM      2  O   UNL     1     -12.221  14.468  66.066  0.00  0.00    -0.291 OA
ENDROOT
BRANCH   1   3
ATOM      3  C   UNL     1     -11.604  14.660  68.329  0.00  0.00    +0.035 A 
ATOM      4  C   UNL     1     -11.648  15.780  69.136  0.00  0.00    +0.003 A 
ATOM      5  C   UNL     1     -12.095  15.696  70.448  0.00  0.00    -0.004 A 
ATOM      6  C   UNL     1     -12.437  14.475  71.017  0.00  0.00    -0.023 A 
ATOM      7  C   UNL     1     -12.006  13.351  70.327  0.00  0.00    -0.004 A 
ATOM      8  C   UNL     1     -11.751  13.439  68.964  0.00  0.00    +0.003 A 
BRANCH   6   9
ATOM      9  C   UNL     1     -13.485  14.437  72.061  0.00  0.00    +0.019 C 
ATOM     10  C   UNL     1     -13.007  15.057  73.369  0.00  0.00    +0.004 C 
ATOM     11  C   UNL     1     -14.777  15.064  71.608  0.00  0.00    +0.004 C 
ATOM     12  C   UNL     1     -13.779  12.977  72.378  0.00  0.00    +0.004 C 
ENDBRANCH   6   9
ENDBRANCH   1   3
BRANCH   1  13
ATOM     13  C   UNL     1     -10.179  15.550  66.468  0.00  0.00    +0.138 C 
BRANCH  13  14
ATOM     14  C   UNL     1     -10.542  16.965  66.215  0.00  0.00    +0.181 C 
ATOM     15  O   UNL     1     -10.668  17.298  64.999  0.00  0.00    -0.291 OA
BRANCH  14  19
ATOM     16  C   UNL     1      -8.375  20.194  67.557  0.00  0.00    +0.139 A 
ATOM     17  C   UNL     1      -9.733  20.398  67.346  0.00  0.00    +0.037 A 
ATOM     18  C   UNL     1     -10.558  19.325  67.031  0.00  0.00    +0.006 A 
ATOM     19  C   UNL     1     -10.095  18.026  67.124  0.00  0.00    +0.035 A 
ATOM     20  C   UNL     1      -8.892  17.866  67.800  0.00  0.00    +0.006 A 
ATOM     21  C   UNL     1      -8.033  18.933  68.031  0.00  0.00    +0.037 A 
BRANCH  16  23
ATOM     22  C   UNL     1      -6.069  21.071  67.593  0.00  0.00    +0.252 C 
ATOM     23  O   UNL     1      -7.411  21.103  67.127  0.00  0.00    -0.471 OA
ENDBRANCH  16  23
ENDBRANCH  14  19
ENDBRANCH  13  14
ENDBRANCH   1  13
TORSDOF 6
ENDMDL
MODEL 4
REMARK VINA RESULT:      -6.6      2.177      3.046
REMARK  Name = 
REMARK  6 active torsions:
REMARK  status: ('A' for Active; 'I' for Inactive)
REMARK    1  A    between atoms: O_2  and  C_3
REMARK    2  A    between atoms: C_6  and  C_7
REMARK    3  A    between atoms: C_7  and  C_9
REMARK    4  A    between atoms: C_9  and  C_10
REMARK    5  A    between atoms: C_10  and  C_12
REMARK    6  A    between atoms: C_15  and  C_16
REMARK                            x       y       z     vdW  Elec       q    Type
REMARK                         _______ _______ _______ _____ _____    ______ ____
ROOT
ATOM      1  C   UNL     1     -11.666  14.787  66.690  0.00  0.00    +0.181 C 
ATOM      2  O   UNL     1     -10.575  15.129  66.161  0.00  0.00    -0.291 OA
ENDROOT
BRANCH   1   3
ATOM      3  C   UNL     1     -11.793  14.698  68.128  0.00  0.00    +0.035 A 
ATOM      4  C   UNL     1     -11.767  15.810  68.947  0.00  0.00    +0.003 A 
ATOM      5  C   UNL     1     -12.073  15.707  70.298  0.00  0.00    -0.004 A 
ATOM      6  C   UNL     1     -12.336  14.476  70.886  0.00  0.00    -0.023 A 
ATOM      7  C   UNL     1     -11.965  13.365  70.143  0.00  0.00    -0.004 A 
ATOM      8  C   UNL     1     -11.855  13.469  68.762  0.00  0.00    +0.003 A 
BRANCH   6   9
ATOM      9  C   UNL     1     -13.268  14.413  72.034  0.00  0.00    +0.019 C 
ATOM     10  C   UNL     1     -13.701  12.982  72.337  0.00  0.00    +0.004 C 
ATOM     11  C   UNL     1     -12.717  15.081  73.266  0.00  0.00    +0.004 C 
ATOM     12  C   UNL     1     -14.539  15.157  71.648  0.00  0.00    +0.004 C 
ENDBRANCH   6   9
ENDBRANCH   1   3
BRANCH   1  13
ATOM     13  C   UNL     1     -12.632  14.041  65.858  0.00  0.00    +0.138 C 
BRANCH  13  14
ATOM     14  C   UNL     1     -12.024  13.488  64.624  0.00  0.00    +0.181 C 
ATOM     15  O   UNL     1     -12.488  13.928  63.530  0.00  0.00    -0.291 OA
BRANCH  14  19
ATOM     16  C   UNL     1      -9.282  10.427  64.413  0.00  0.00    +0.139 A 
ATOM     17  C   UNL     1      -9.966  10.570  65.614  0.00  0.00    +0.037 A 
ATOM     18  C   UNL     1     -11.007  11.486  65.718  0.00  0.00    +0.006 A 
ATOM     19  C   UNL     1     -11.513  12.113  64.595  0.00  0.00    +0.035 A 
ATOM     20  C   UNL     1     -11.117  11.571  63.378  0.00  0.00    +0.006 A 
ATOM     21  C   UNL     1     -10.019  10.726  63.273  0.00  0.00    +0.037 A 
BRANCH  16  23
ATOM     22  C   UNL     1      -7.204  10.053  63.137  0.00  0.00    +0.252 C 
ATOM     23  O   UNL     1      -7.908  10.209  64.361  0.00  0.00    -0.471 OA
ENDBRANCH  16  23
ENDBRANCH  14  19
ENDBRANCH  13  14
ENDBRANCH   1  13
TORSDOF 6
ENDMDL
MODEL 5
REMARK VINA RESULT:      -6.5      2.177      5.730
REMARK  Name = 
REMARK  6 active torsions:
REMARK  status: ('A' for Active; 'I' for Inactive)
REMARK    1  A    between atoms: O_2  and  C_3
REMARK    2  A    between atoms: C_6  and  C_7
REMARK    3  A    between atoms: C_7  and  C_9
REMARK    4  A    between atoms: C_9  and  C_10
REMARK    5  A    between atoms: C_10  and  C_12
REMARK    6  A    between atoms: C_15  and  C_16
REMARK                            x       y       z     vdW  Elec       q    Type
REMARK                         _______ _______ _______ _____ _____    ______ ____
ROOT
ATOM      1  C   UNL     1     -10.891  14.599  65.263  0.00  0.00    +0.181 C 
ATOM      2  O   UNL     1     -10.354  13.748  64.504  0.00  0.00    -0.291 OA
ENDROOT
BRANCH   1   3
ATOM      3  C   UNL     1     -10.176  15.792  65.657  0.00  0.00    +0.035 A 
ATOM      4  C   UNL     1     -10.733  17.054  65.575  0.00  0.00    +0.003 A 
ATOM      5  C   UNL     1     -10.090  18.154  66.128  0.00  0.00    -0.004 A 
ATOM      6  C   UNL     1      -8.834  18.037  66.712  0.00  0.00    -0.023 A 
ATOM      7  C   UNL     1      -8.146  16.869  66.423  0.00  0.00    -0.004 A 
ATOM      8  C   UNL     1      -8.851  15.730  66.053  0.00  0.00    +0.003 A 
BRANCH   6   9
ATOM      9  C   UNL     1      -8.474  18.940  67.828  0.00  0.00    +0.019 C 
ATOM     10  C   UNL     1      -7.784  20.207  67.334  0.00  0.00    +0.004 C 
ATOM     11  C   UNL     1      -9.652  19.275  68.705  0.00  0.00    +0.004 C 
ATOM     12  C   UNL     1      -7.452  18.224  68.700  0.00  0.00    +0.004 C 
ENDBRANCH   6   9
ENDBRANCH   1   3
BRANCH   1  13
ATOM     13  C   UNL     1     -12.023  14.156  66.102  0.00  0.00    +0.138 C 
BRANCH  13  14
ATOM     14  C   UNL     1     -11.605  13.265  67.211  0.00  0.00    +0.181 C 
ATOM     15  O   UNL     1     -11.969  12.054  67.119  0.00  0.00    -0.291 OA
BRANCH  14  19
ATOM     16  C   UNL     1     -12.646  15.131  70.727  0.00  0.00    +0.139 A 
ATOM     17  C   UNL     1     -12.398  13.765  70.795  0.00  0.00    +0.037 A 
ATOM     18  C   UNL     1     -11.905  13.091  69.684  0.00  0.00    +0.006 A 
ATOM     19  C   UNL     1     -11.460  13.786  68.575  0.00  0.00    +0.035 A 
ATOM     20  C   UNL     1     -11.284  15.152  68.755  0.00  0.00    +0.006 A 
ATOM     21  C   UNL     1     -11.857  15.831  69.822  0.00  0.00    +0.037 A 
BRANCH  16  23
ATOM     22  C   UNL     1     -14.931  15.003  71.648  0.00  0.00    +0.252 C 
ATOM     23  O   UNL     1     -13.741  15.720  71.355  0.00  0.00    -0.471 OA
ENDBRANCH  16  23
ENDBRANCH  14  19
ENDBRANCH  13  14
ENDBRANCH   1  13
TORSDOF 6
ENDMDL
MODEL 6
REMARK VINA RESULT:      -6.4      1.407      4.010
REMARK  Name = 
REMARK  6 active torsions:
REMARK  status: ('A' for Active; 'I' for Inactive)
REMARK    1  A    between atoms: O_2  and  C_3
REMARK    2  A    between atoms: C_6  and  C_7
REMARK    3  A    between atoms: C_7  and  C_9
REMARK    4  A    between atoms: C_9  and  C_10
REMARK    5  A    between atoms: C_10  and  C_12
REMARK    6  A    between atoms: C_15  and  C_16
REMARK                            x       y       z     vdW  Elec       q    Type
REMARK                         _______ _______ _______ _____ _____    ______ ____
ROOT
ATOM      1  C   UNL     1     -11.812  12.953  66.738  0.00  0.00    +0.181 C 
ATOM      2  O   UNL     1     -11.915  11.740  66.413  0.00  0.00    -0.291 OA
ENDROOT
BRANCH   1   3
ATOM      3  C   UNL     1     -11.861  13.352  68.127  0.00  0.00    +0.035 A 
ATOM      4  C   UNL     1     -11.783  14.673  68.524  0.00  0.00    +0.003 A 
ATOM      5  C   UNL     1     -12.014  15.035  69.844  0.00  0.00    -0.004 A 
ATOM      6  C   UNL     1     -12.254  14.078  70.823  0.00  0.00    -0.023 A 
ATOM      7  C   UNL     1     -11.931  12.774  70.478  0.00  0.00    -0.004 A 
ATOM      8  C   UNL     1     -11.897  12.408  69.138  0.00  0.00    +0.003 A 
BRANCH   6   9
ATOM      9  C   UNL     1     -13.122  14.426  71.970  0.00  0.00    +0.019 C 
ATOM     10  C   UNL     1     -13.854  13.205  72.519  0.00  0.00    +0.004 C 
ATOM     11  C   UNL     1     -12.378  15.145  73.064  0.00  0.00    +0.004 C 
ATOM     12  C   UNL     1     -14.208  15.368  71.469  0.00  0.00    +0.004 C 
ENDBRANCH   6   9
ENDBRANCH   1   3
BRANCH   1  13
ATOM     13  C   UNL     1     -12.114  13.969  65.710  0.00  0.00    +0.138 C 
BRANCH  13  14
ATOM     14  C   UNL     1     -10.923  14.364  64.920  0.00  0.00    +0.181 C 
ATOM     15  O   UNL     1     -10.340  13.433  64.289  0.00  0.00    -0.291 OA
BRANCH  14  19
ATOM     16  C   UNL     1      -9.464  17.335  67.365  0.00  0.00    +0.139 A 
ATOM     17  C   UNL     1      -8.626  16.252  67.130  0.00  0.00    +0.037 A 
ATOM     18  C   UNL     1      -8.987  15.279  66.206  0.00  0.00    +0.006 A 
ATOM     19  C   UNL     1     -10.066  15.470  65.363  0.00  0.00    +0.035 A 
ATOM     20  C   UNL     1     -10.565  16.765  65.313  0.00  0.00    +0.006 A 
ATOM     21  C   UNL     1     -10.267  17.705  66.292  0.00  0.00    +0.037 A 
BRANCH  16  23
ATOM     22  C   UNL     1      -9.729  19.273  68.868  0.00  0.00    +0.252 C 
ATOM     23  O   UNL     1      -9.645  17.875  68.636  0.00  0.00    -0.471 OA
ENDBRANCH  16  23
ENDBRANCH  14  19
ENDBRANCH  13  14
ENDBRANCH   1  13
TORSDOF 6
ENDMDL
MODEL 7
REMARK VINA RESULT:      -6.4      1.666      2.681
REMARK  Name = 
REMARK  6 active torsions:
REMARK  status: ('A' for Active; 'I' for Inactive)
REMARK    1  A    between atoms: O_2  and  C_3
REMARK    2  A    between atoms: C_6  and  C_7
REMARK    3  A    between atoms: C_7  and  C_9
REMARK    4  A    between atoms: C_9  and  C_10
REMARK    5  A    between atoms: C_10  and  C_12
REMARK    6  A    between atoms: C_15  and  C_16
REMARK                            x       y       z     vdW  Elec       q    Type
REMARK                         _______ _______ _______ _____ _____    ______ ____
ROOT
ATOM      1  C   UNL     1     -11.435  14.895  66.808  0.00  0.00    +0.181 C 
ATOM      2  O   UNL     1     -10.633  15.756  66.357  0.00  0.00    -0.291 OA
ENDROOT
BRANCH   1   3
ATOM      3  C   UNL     1     -11.669  14.778  68.231  0.00  0.00    +0.035 A 
ATOM      4  C   UNL     1     -11.649  15.868  69.080  0.00  0.00    +0.003 A 
ATOM      5  C   UNL     1     -12.056  15.749  70.402  0.00  0.00    -0.004 A 
ATOM      6  C   UNL     1     -12.420  14.519  70.937  0.00  0.00    -0.023 A 
ATOM      7  C   UNL     1     -12.050  13.409  70.192  0.00  0.00    -0.004 A 
ATOM      8  C   UNL     1     -11.836  13.540  68.825  0.00  0.00    +0.003 A 
BRANCH   6   9
ATOM      9  C   UNL     1     -13.434  14.475  72.013  0.00  0.00    +0.019 C 
ATOM     10  C   UNL     1     -12.920  15.102  73.305  0.00  0.00    +0.004 C 
ATOM     11  C   UNL     1     -14.745  15.092  71.601  0.00  0.00    +0.004 C 
ATOM     12  C   UNL     1     -13.707  13.014  72.343  0.00  0.00    +0.004 C 
ENDBRANCH   6   9
ENDBRANCH   1   3
BRANCH   1  13
ATOM     13  C   UNL     1     -11.753  13.735  65.953  0.00  0.00    +0.138 C 
BRANCH  13  14
ATOM     14  C   UNL     1     -10.544  13.067  65.414  0.00  0.00    +0.181 C 
ATOM     15  O   UNL     1     -10.429  13.059  64.151  0.00  0.00    -0.291 OA
BRANCH  14  19
ATOM     16  C   UNL     1      -9.675  10.511  68.519  0.00  0.00    +0.139 A 
ATOM     17  C   UNL     1     -10.407   9.983  67.462  0.00  0.00    +0.037 A 
ATOM     18  C   UNL     1     -10.618  10.739  66.315  0.00  0.00    +0.006 A 
ATOM     19  C   UNL     1      -9.942  11.929  66.117  0.00  0.00    +0.035 A 
ATOM     20  C   UNL     1      -8.873  12.159  66.974  0.00  0.00    +0.006 A 
ATOM     21  C   UNL     1      -8.722  11.458  68.163  0.00  0.00    +0.037 A 
BRANCH  16  23
ATOM     22  C   UNL     1     -11.279   9.764  70.237  0.00  0.00    +0.252 C 
ATOM     23  O   UNL     1     -10.012  10.273  69.849  0.00  0.00    -0.471 OA
ENDBRANCH  16  23
ENDBRANCH  14  19
ENDBRANCH  13  14
ENDBRANCH   1  13
TORSDOF 6
ENDMDL
MODEL 8
REMARK VINA RESULT:      -6.1      2.580      5.596
REMARK  Name = 
REMARK  6 active torsions:
REMARK  status: ('A' for Active; 'I' for Inactive)
REMARK    1  A    between atoms: O_2  and  C_3
REMARK    2  A    between atoms: C_6  and  C_7
REMARK    3  A    between atoms: C_7  and  C_9
REMARK    4  A    between atoms: C_9  and  C_10
REMARK    5  A    between atoms: C_10  and  C_12
REMARK    6  A    between atoms: C_15  and  C_16
REMARK                            x       y       z     vdW  Elec       q    Type
REMARK                         _______ _______ _______ _____ _____    ______ ____
ROOT
ATOM      1  C   UNL     1     -11.103  15.963  64.817  0.00  0.00    +0.181 C 
ATOM      2  O   UNL     1     -11.639  16.654  63.910  0.00  0.00    -0.291 OA
ENDROOT
BRANCH   1   3
ATOM      3  C   UNL     1     -10.114  16.541  65.699  0.00  0.00    +0.035 A 
ATOM      4  C   UNL     1      -8.840  16.023  65.830  0.00  0.00    +0.003 A 
ATOM      5  C   UNL     1      -7.863  16.706  66.543  0.00  0.00    -0.004 A 
ATOM      6  C   UNL     1      -8.153  17.888  67.214  0.00  0.00    -0.023 A 
ATOM      7  C   UNL     1      -9.501  18.159  67.395  0.00  0.00    -0.004 A 
ATOM      8  C   UNL     1     -10.435  17.599  66.532  0.00  0.00    +0.003 A 
BRANCH   6   9
ATOM      9  C   UNL     1      -7.090  18.906  67.366  0.00  0.00    +0.019 C 
ATOM     10  C   UNL     1      -7.653  20.323  67.343  0.00  0.00    +0.004 C 
ATOM     11  C   UNL     1      -6.244  18.683  68.591  0.00  0.00    +0.004 C 
ATOM     12  C   UNL     1      -6.168  18.808  66.158  0.00  0.00    +0.004 C 
ENDBRANCH   6   9
ENDBRANCH   1   3
BRANCH   1  13
ATOM     13  C   UNL     1     -11.131  14.494  64.670  0.00  0.00    +0.138 C 
BRANCH  13  14
ATOM     14  C   UNL     1     -12.006  13.831  65.667  0.00  0.00    +0.181 C 
ATOM     15  O   UNL     1     -13.253  13.964  65.488  0.00  0.00    -0.291 OA
BRANCH  14  19
ATOM     16  C   UNL     1      -9.832  14.513  69.093  0.00  0.00    +0.139 A 
ATOM     17  C   UNL     1     -11.178  14.854  69.130  0.00  0.00    +0.037 A 
ATOM     18  C   UNL     1     -12.010  14.525  68.066  0.00  0.00    +0.006 A 
ATOM     19  C   UNL     1     -11.572  13.682  67.061  0.00  0.00    +0.035 A 
ATOM     20  C   UNL     1     -10.396  12.993  67.327  0.00  0.00    +0.006 A 
ATOM     21  C   UNL     1      -9.527  13.386  68.337  0.00  0.00    +0.037 A 
BRANCH  16  23
ATOM     22  C   UNL     1      -7.459  15.011  69.550  0.00  0.00    +0.252 C 
ATOM     23  O   UNL     1      -8.838  15.350  69.593  0.00  0.00    -0.471 OA
ENDBRANCH  16  23
ENDBRANCH  14  19
ENDBRANCH  13  14
ENDBRANCH   1  13
TORSDOF 6
ENDMDL
MODEL 9
REMARK VINA RESULT:      -6.1      2.347      4.979
REMARK  Name = 
REMARK  6 active torsions:
REMARK  status: ('A' for Active; 'I' for Inactive)
REMARK    1  A    between atoms: O_2  and  C_3
REMARK    2  A    between atoms: C_6  and  C_7
REMARK    3  A    between atoms: C_7  and  C_9
REMARK    4  A    between atoms: C_9  and  C_10
REMARK    5  A    between atoms: C_10  and  C_12
REMARK    6  A    between atoms: C_15  and  C_16
REMARK                            x       y       z     vdW  Elec       q    Type
REMARK                         _______ _______ _______ _____ _____    ______ ____
ROOT
ATOM      1  C   UNL     1     -10.983  15.822  65.007  0.00  0.00    +0.181 C 
ATOM      2  O   UNL     1     -11.395  16.692  64.194  0.00  0.00    -0.291 OA
ENDROOT
BRANCH   1   3
ATOM      3  C   UNL     1     -10.045  16.173  66.050  0.00  0.00    +0.035 A 
ATOM      4  C   UNL     1      -8.792  15.600  66.146  0.00  0.00    +0.003 A 
ATOM      5  C   UNL     1      -7.852  16.088  67.046  0.00  0.00    -0.004 A 
ATOM      6  C   UNL     1      -8.165  17.112  67.931  0.00  0.00    -0.023 A 
ATOM      7  C   UNL     1      -9.517  17.381  68.082  0.00  0.00    -0.004 A 
ATOM      8  C   UNL     1     -10.402  17.043  67.066  0.00  0.00    +0.003 A 
BRANCH   6   9
ATOM      9  C   UNL     1      -7.097  18.043  68.358  0.00  0.00    +0.019 C 
ATOM     10  C   UNL     1      -7.659  19.392  68.792  0.00  0.00    +0.004 C 
ATOM     11  C   UNL     1      -6.213  17.459  69.428  0.00  0.00    +0.004 C 
ATOM     12  C   UNL     1      -6.214  18.331  67.151  0.00  0.00    +0.004 C 
ENDBRANCH   6   9
ENDBRANCH   1   3
BRANCH   1  13
ATOM     13  C   UNL     1     -11.084  14.404  64.609  0.00  0.00    +0.138 C 
BRANCH  13  14
ATOM     14  C   UNL     1     -11.947  13.609  65.516  0.00  0.00    +0.181 C 
ATOM     15  O   UNL     1     -13.141  14.015  65.644  0.00  0.00    -0.291 OA
BRANCH  14  19
ATOM     16  C   UNL     1     -11.840  11.378  68.971  0.00  0.00    +0.139 A 
ATOM     17  C   UNL     1     -11.239  10.820  67.849  0.00  0.00    +0.037 A 
ATOM     18  C   UNL     1     -11.108  11.568  66.685  0.00  0.00    +0.006 A 
ATOM     19  C   UNL     1     -11.377  12.924  66.681  0.00  0.00    +0.035 A 
ATOM     20  C   UNL     1     -11.504  13.512  67.933  0.00  0.00    +0.006 A 
ATOM     21  C   UNL     1     -11.724  12.759  69.079  0.00  0.00    +0.037 A 
BRANCH  16  23
ATOM     22  C   UNL     1     -12.768  10.894  71.205  0.00  0.00    +0.252 C 
ATOM     23  O   UNL     1     -12.675  10.644  69.810  0.00  0.00    -0.471 OA
ENDBRANCH  16  23
ENDBRANCH  14  19
ENDBRANCH  13  14
ENDBRANCH   1  13
TORSDOF 6
ENDMDL
