MODEL 1
REMARK VINA RESULT:      -6.3      0.000      0.000
REMARK  Name = 
REMARK  14 active torsions:
REMARK  status: ('A' for Active; 'I' for Inactive)
REMARK    1  A    between atoms: C_2  and  C_3
REMARK    2  A    between atoms: C_3  and  C_4
REMARK    3  A    between atoms: C_4  and  S_5
REMARK    4  A    between atoms: S_5  and  N_8
REMARK    5  A    between atoms: N_8  and  C_9
REMARK    6  A    between atoms: C_9  and  C_10
REMARK    7  A    between atoms: C_9  and  C_28
REMARK    8  A    between atoms: C_10  and  C_11
REMARK    9  A    between atoms: C_14  and  O_15
REMARK   10  A    between atoms: O_15  and  C_16
REMARK   11  A    between atoms: C_16  and  C_17
REMARK   12  A    between atoms: C_17  and  C_18
REMARK   13  A    between atoms: C_18  and  C_19
REMARK   14  A    between atoms: C_19  and  C_20
REMARK                            x       y       z     vdW  Elec       q    Type
REMARK                         _______ _______ _______ _____ _____    ______ ____
ROOT
ATOM      1  C   UNL     1      -9.621  12.389  67.462  0.00  0.00    -0.020 A 
ATOM      2  C   UNL     1      -8.771  11.667  68.294  0.00  0.00    -0.001 A 
ATOM      3  C   UNL     1      -9.256  10.708  69.178  0.00  0.00    +0.037 A 
ATOM      4  C   UNL     1     -10.492  10.148  68.897  0.00  0.00    +0.139 A 
ATOM      5  C   UNL     1     -11.337  10.866  68.058  0.00  0.00    +0.037 A 
ATOM      6  C   UNL     1     -10.969  12.167  67.732  0.00  0.00    -0.001 A 
ENDROOT
BRANCH   4   7
ATOM      7  O   UNL     1     -11.067   9.157  69.699  0.00  0.00    -0.475 OA
BRANCH   7   8
ATOM      8  C   UNL     1     -11.401   9.452  71.053  0.00  0.00    +0.205 C 
BRANCH   8   9
ATOM      9  C   UNL     1     -12.847   9.899  71.062  0.00  0.00    +0.047 C 
BRANCH   9  10
ATOM     10  C   UNL     1     -13.025  11.172  71.859  0.00  0.00    +0.004 C 
BRANCH  10  11
ATOM     11  C   UNL     1     -12.797  12.326  70.901  0.00  0.00    +0.000 C 
BRANCH  11  12
ATOM     12  C   UNL     1     -12.587  13.636  71.595  0.00  0.00    +0.003 C 
ATOM     13  C   UNL     1     -12.164  14.642  70.540  0.00  0.00    +0.019 C 
ATOM     14  C   UNL     1     -11.807  15.963  71.173  0.00  0.00    +0.089 C 
ATOM     15  N   UNL     1     -12.376  16.042  72.517  0.00  0.00    -0.218 NA
ATOM     16  C   UNL     1     -13.767  15.601  72.490  0.00  0.00    +0.089 C 
ATOM     17  C   UNL     1     -13.818  14.099  72.318  0.00  0.00    +0.019 C 
ENDBRANCH  11  12
ENDBRANCH  10  11
ENDBRANCH   9  10
ENDBRANCH   8   9
ENDBRANCH   7   8
ENDBRANCH   4   7
BRANCH   1  18
ATOM     18  C   UNL     1      -9.234  13.637  66.872  0.00  0.00    +0.057 C 
BRANCH  18  19
ATOM     19  C   UNL     1     -10.550  14.654  66.761  0.00  0.00    +0.204 C 
BRANCH  19  20
ATOM     20  C   UNL     1      -9.700  16.045  66.933  0.00  0.00    +0.382 C 
ATOM     21  O   UNL     1      -9.170  16.558  65.773  0.00  0.00    -0.244 OA
ATOM     22  O   UNL     1     -10.493  16.840  67.532  0.00  0.00    -0.244 OA
ENDBRANCH  19  20
BRANCH  19  23
ATOM     23  N   UNL     1     -10.436  14.677  65.163  0.00  0.00    -0.072 NA
BRANCH  23  24
ATOM     24  S   UNL     1     -11.987  14.166  64.597  0.00  0.00    +0.058 S 
ATOM     25  O   UNL     1     -12.654  15.231  63.759  0.00  0.00    -0.156 OA
ATOM     26  O   UNL     1     -12.868  13.976  65.813  0.00  0.00    -0.156 OA
BRANCH  24  27
ATOM     27  C   UNL     1     -11.917  12.692  63.632  0.00  0.00    +0.171 C 
BRANCH  27  28
ATOM     28  C   UNL     1     -10.531  12.144  63.476  0.00  0.00    +0.027 C 
BRANCH  28  30
ATOM     29  C   UNL     1     -10.086  10.328  64.539  0.00  0.00    +0.000 C 
ATOM     30  C   UNL     1     -10.455  10.837  64.257  0.00  0.00    +0.002 C 
ENDBRANCH  28  30
ENDBRANCH  27  28
ENDBRANCH  24  27
ENDBRANCH  23  24
ENDBRANCH  19  23
ENDBRANCH  18  19
ENDBRANCH   1  18
TORSDOF 14
ENDMDL
MODEL 2
REMARK VINA RESULT:      -5.9      2.454      4.887
REMARK  Name = 
REMARK  14 active torsions:
REMARK  status: ('A' for Active; 'I' for Inactive)
REMARK    1  A    between atoms: C_2  and  C_3
REMARK    2  A    between atoms: C_3  and  C_4
REMARK    3  A    between atoms: C_4  and  S_5
REMARK    4  A    between atoms: S_5  and  N_8
REMARK    5  A    between atoms: N_8  and  C_9
REMARK    6  A    between atoms: C_9  and  C_10
REMARK    7  A    between atoms: C_9  and  C_28
REMARK    8  A    between atoms: C_10  and  C_11
REMARK    9  A    between atoms: C_14  and  O_15
REMARK   10  A    between atoms: O_15  and  C_16
REMARK   11  A    between atoms: C_16  and  C_17
REMARK   12  A    between atoms: C_17  and  C_18
REMARK   13  A    between atoms: C_18  and  C_19
REMARK   14  A    between atoms: C_19  and  C_20
REMARK                            x       y       z     vdW  Elec       q    Type
REMARK                         _______ _______ _______ _____ _____    ______ ____
ROOT
ATOM      1  C   UNL     1     -11.779  12.774  67.087  0.00  0.00    -0.020 A 
ATOM      2  C   UNL     1     -11.209  11.834  66.234  0.00  0.00    -0.001 A 
ATOM      3  C   UNL     1     -10.608  10.677  66.719  0.00  0.00    +0.037 A 
ATOM      4  C   UNL     1     -10.989  10.240  67.978  0.00  0.00    +0.139 A 
ATOM      5  C   UNL     1     -11.567  11.177  68.826  0.00  0.00    +0.037 A 
ATOM      6  C   UNL     1     -11.534  12.510  68.433  0.00  0.00    -0.001 A 
ENDROOT
BRANCH   4   7
ATOM      7  O   UNL     1     -10.472   9.076  68.557  0.00  0.00    -0.475 OA
BRANCH   7   8
ATOM      8  C   UNL     1      -9.077   8.990  68.840  0.00  0.00    +0.205 C 
BRANCH   8   9
ATOM      9  C   UNL     1      -8.938   8.189  70.117  0.00  0.00    +0.047 C 
BRANCH   9  10
ATOM     10  C   UNL     1      -9.689   8.837  71.258  0.00  0.00    +0.004 C 
BRANCH  10  11
ATOM     11  C   UNL     1     -10.409   7.726  71.998  0.00  0.00    +0.000 C 
BRANCH  11  12
ATOM     12  C   UNL     1     -11.845   8.039  72.281  0.00  0.00    +0.003 C 
ATOM     13  C   UNL     1     -12.135   9.406  71.690  0.00  0.00    +0.019 C 
ATOM     14  C   UNL     1     -13.530   9.858  72.040  0.00  0.00    +0.089 C 
ATOM     15  N   UNL     1     -14.336   8.711  72.451  0.00  0.00    -0.218 NA
ATOM     16  C   UNL     1     -14.143   7.610  71.512  0.00  0.00    +0.089 C 
ATOM     17  C   UNL     1     -12.774   7.002  71.720  0.00  0.00    +0.019 C 
ENDBRANCH  11  12
ENDBRANCH  10  11
ENDBRANCH   9  10
ENDBRANCH   8   9
ENDBRANCH   7   8
ENDBRANCH   4   7
BRANCH   1  18
ATOM     18  C   UNL     1     -12.015  14.129  66.683  0.00  0.00    +0.057 C 
BRANCH  18  19
ATOM     19  C   UNL     1     -11.054  14.515  65.377  0.00  0.00    +0.204 C 
BRANCH  19  20
ATOM     20  C   UNL     1     -12.283  14.998  64.405  0.00  0.00    +0.382 C 
ATOM     21  O   UNL     1     -12.100  16.210  63.783  0.00  0.00    -0.244 OA
ATOM     22  O   UNL     1     -12.460  14.029  63.598  0.00  0.00    -0.244 OA
ENDBRANCH  19  20
BRANCH  19  23
ATOM     23  N   UNL     1     -10.812  15.990  65.953  0.00  0.00    -0.072 NA
BRANCH  23  24
ATOM     24  S   UNL     1      -9.225  15.947  66.637  0.00  0.00    +0.058 S 
ATOM     25  O   UNL     1      -8.249  16.779  65.838  0.00  0.00    -0.156 OA
ATOM     26  O   UNL     1      -8.734  14.519  66.542  0.00  0.00    -0.156 OA
BRANCH  24  27
ATOM     27  C   UNL     1      -9.177  16.521  68.303  0.00  0.00    +0.171 C 
BRANCH  27  28
ATOM     28  C   UNL     1      -9.616  15.494  69.303  0.00  0.00    +0.027 C 
BRANCH  28  30
ATOM     29  C   UNL     1     -11.604  15.929  70.000  0.00  0.00    +0.000 C 
ATOM     30  C   UNL     1     -10.921  15.977  69.927  0.00  0.00    +0.002 C 
ENDBRANCH  28  30
ENDBRANCH  27  28
ENDBRANCH  24  27
ENDBRANCH  23  24
ENDBRANCH  19  23
ENDBRANCH  18  19
ENDBRANCH   1  18
TORSDOF 14
ENDMDL
MODEL 3
REMARK VINA RESULT:      -5.8      3.152      6.168
REMARK  Name = 
REMARK  14 active torsions:
REMARK  status: ('A' for Active; 'I' for Inactive)
REMARK    1  A    between atoms: C_2  and  C_3
REMARK    2  A    between atoms: C_3  and  C_4
REMARK    3  A    between atoms: C_4  and  S_5
REMARK    4  A    between atoms: S_5  and  N_8
REMARK    5  A    between atoms: N_8  and  C_9
REMARK    6  A    between atoms: C_9  and  C_10
REMARK    7  A    between atoms: C_9  and  C_28
REMARK    8  A    between atoms: C_10  and  C_11
REMARK    9  A    between atoms: C_14  and  O_15
REMARK   10  A    between atoms: O_15  and  C_16
REMARK   11  A    between atoms: C_16  and  C_17
REMARK   12  A    between atoms: C_17  and  C_18
REMARK   13  A    between atoms: C_18  and  C_19
REMARK   14  A    between atoms: C_19  and  C_20
REMARK                            x       y       z     vdW  Elec       q    Type
REMARK                         _______ _______ _______ _____ _____    ______ ____
ROOT
ATOM      1  C   UNL     1      -9.069  14.958  67.909  0.00  0.00    -0.020 A 
ATOM      2  C   UNL     1      -8.192  15.308  66.888  0.00  0.00    -0.001 A 
ATOM      3  C   UNL     1      -6.948  15.872  67.156  0.00  0.00    +0.037 A 
ATOM      4  C   UNL     1      -6.402  15.647  68.410  0.00  0.00    +0.139 A 
ATOM      5  C   UNL     1      -7.280  15.288  69.427  0.00  0.00    +0.037 A 
ATOM      6  C   UNL     1      -8.642  15.378  69.166  0.00  0.00    -0.001 A 
ENDROOT
BRANCH   4   7
ATOM      7  O   UNL     1      -5.148  16.142  68.782  0.00  0.00    -0.475 OA
BRANCH   7   8
ATOM      8  C   UNL     1      -4.711  17.403  68.283  0.00  0.00    +0.205 C 
BRANCH   8   9
ATOM      9  C   UNL     1      -5.104  18.443  69.310  0.00  0.00    +0.047 C 
BRANCH   9  10
ATOM     10  C   UNL     1      -5.910  19.559  68.683  0.00  0.00    +0.004 C 
BRANCH  10  11
ATOM     11  C   UNL     1      -7.350  19.356  69.112  0.00  0.00    +0.000 C 
BRANCH  11  12
ATOM     12  C   UNL     1      -8.250  18.946  67.988  0.00  0.00    +0.003 C 
ATOM     13  C   UNL     1      -9.662  18.888  68.539  0.00  0.00    +0.019 C 
ATOM     14  C   UNL     1     -10.621  18.358  67.503  0.00  0.00    +0.089 C 
ATOM     15  N   UNL     1     -10.027  18.470  66.172  0.00  0.00    -0.218 NA
ATOM     16  C   UNL     1      -9.436  19.794  66.005  0.00  0.00    +0.089 C 
ATOM     17  C   UNL     1      -8.166  19.887  66.821  0.00  0.00    +0.019 C 
ENDBRANCH  11  12
ENDBRANCH  10  11
ENDBRANCH   9  10
ENDBRANCH   8   9
ENDBRANCH   7   8
ENDBRANCH   4   7
BRANCH   1  18
ATOM     18  C   UNL     1     -10.474  14.784  67.682  0.00  0.00    +0.057 C 
BRANCH  18  19
ATOM     19  C   UNL     1     -10.766  13.290  67.003  0.00  0.00    +0.204 C 
BRANCH  19  20
ATOM     20  C   UNL     1     -11.398  12.614  68.357  0.00  0.00    +0.382 C 
ATOM     21  O   UNL     1     -12.094  13.474  69.174  0.00  0.00    -0.244 OA
ATOM     22  O   UNL     1     -12.091  11.631  67.939  0.00  0.00    -0.244 OA
ENDBRANCH  19  20
BRANCH  19  23
ATOM     23  N   UNL     1     -12.197  13.778  66.471  0.00  0.00    -0.072 NA
BRANCH  23  24
ATOM     24  S   UNL     1     -12.183  13.434  64.777  0.00  0.00    +0.058 S 
ATOM     25  O   UNL     1     -12.584  14.640  63.959  0.00  0.00    -0.156 OA
ATOM     26  O   UNL     1     -13.242  12.384  64.523  0.00  0.00    -0.156 OA
BRANCH  24  27
ATOM     27  C   UNL     1     -10.608  12.895  64.197  0.00  0.00    +0.171 C 
BRANCH  27  28
ATOM     28  C   UNL     1     -10.659  11.597  63.449  0.00  0.00    +0.027 C 
BRANCH  28  30
ATOM     29  C   UNL     1     -10.011  10.281  65.023  0.00  0.00    +0.000 C 
ATOM     30  C   UNL     1     -10.186  10.495  64.392  0.00  0.00    +0.002 C 
ENDBRANCH  28  30
ENDBRANCH  27  28
ENDBRANCH  24  27
ENDBRANCH  23  24
ENDBRANCH  19  23
ENDBRANCH  18  19
ENDBRANCH   1  18
TORSDOF 14
ENDMDL
MODEL 4
REMARK VINA RESULT:      -5.7      2.594      4.694
REMARK  Name = 
REMARK  14 active torsions:
REMARK  status: ('A' for Active; 'I' for Inactive)
REMARK    1  A    between atoms: C_2  and  C_3
REMARK    2  A    between atoms: C_3  and  C_4
REMARK    3  A    between atoms: C_4  and  S_5
REMARK    4  A    between atoms: S_5  and  N_8
REMARK    5  A    between atoms: N_8  and  C_9
REMARK    6  A    between atoms: C_9  and  C_10
REMARK    7  A    between atoms: C_9  and  C_28
REMARK    8  A    between atoms: C_10  and  C_11
REMARK    9  A    between atoms: C_14  and  O_15
REMARK   10  A    between atoms: O_15  and  C_16
REMARK   11  A    between atoms: C_16  and  C_17
REMARK   12  A    between atoms: C_17  and  C_18
REMARK   13  A    between atoms: C_18  and  C_19
REMARK   14  A    between atoms: C_19  and  C_20
REMARK                            x       y       z     vdW  Elec       q    Type
REMARK                         _______ _______ _______ _____ _____    ______ ____
ROOT
ATOM      1  C   UNL     1     -10.611  13.242  68.160  0.00  0.00    -0.020 A 
ATOM      2  C   UNL     1     -11.206  13.994  69.168  0.00  0.00    -0.001 A 
ATOM      3  C   UNL     1     -12.091  13.423  70.078  0.00  0.00    +0.037 A 
ATOM      4  C   UNL     1     -12.011  12.053  70.272  0.00  0.00    +0.139 A 
ATOM      5  C   UNL     1     -11.408  11.305  69.268  0.00  0.00    +0.037 A 
ATOM      6  C   UNL     1     -11.117  11.948  68.070  0.00  0.00    -0.001 A 
ENDROOT
BRANCH   4   7
ATOM      7  O   UNL     1     -12.831  11.375  71.180  0.00  0.00    -0.475 OA
BRANCH   7   8
ATOM      8  C   UNL     1     -13.184  10.016  70.934  0.00  0.00    +0.205 C 
BRANCH   8   9
ATOM      9  C   UNL     1     -12.931   9.257  72.219  0.00  0.00    +0.047 C 
BRANCH   9  10
ATOM     10  C   UNL     1     -12.188   7.965  71.958  0.00  0.00    +0.004 C 
BRANCH  10  11
ATOM     11  C   UNL     1     -10.813   8.344  71.445  0.00  0.00    +0.000 C 
BRANCH  11  12
ATOM     12  C   UNL     1     -10.267   7.373  70.444  0.00  0.00    +0.003 C 
ATOM     13  C   UNL     1     -10.833   6.007  70.787  0.00  0.00    +0.019 C 
ATOM     14  C   UNL     1     -10.234   4.943  69.903  0.00  0.00    +0.089 C 
ATOM     15  N   UNL     1      -9.641   5.555  68.716  0.00  0.00    -0.218 NA
ATOM     16  C   UNL     1     -10.567   6.532  68.151  0.00  0.00    +0.089 C 
ATOM     17  C   UNL     1     -10.608   7.759  69.034  0.00  0.00    +0.019 C 
ENDBRANCH  11  12
ENDBRANCH  10  11
ENDBRANCH   9  10
ENDBRANCH   8   9
ENDBRANCH   7   8
ENDBRANCH   4   7
BRANCH   1  18
ATOM     18  C   UNL     1     -10.054  13.846  66.985  0.00  0.00    +0.057 C 
BRANCH  18  19
ATOM     19  C   UNL     1     -11.242  14.643  66.129  0.00  0.00    +0.204 C 
BRANCH  19  20
ATOM     20  C   UNL     1     -10.428  16.059  65.994  0.00  0.00    +0.382 C 
ATOM     21  O   UNL     1     -10.708  16.793  64.866  0.00  0.00    -0.244 OA
ATOM     22  O   UNL     1     -10.664  16.677  67.081  0.00  0.00    -0.244 OA
ENDBRANCH  19  20
BRANCH  19  23
ATOM     23  N   UNL     1     -10.668  14.077  64.745  0.00  0.00    -0.072 NA
BRANCH  23  24
ATOM     24  S   UNL     1     -11.887  12.998  64.164  0.00  0.00    +0.058 S 
ATOM     25  O   UNL     1     -12.593  13.554  62.950  0.00  0.00    -0.156 OA
ATOM     26  O   UNL     1     -12.939  12.884  65.246  0.00  0.00    -0.156 OA
BRANCH  24  27
ATOM     27  C   UNL     1     -11.253  11.410  63.733  0.00  0.00    +0.171 C 
BRANCH  27  28
ATOM     28  C   UNL     1      -9.902  11.126  64.318  0.00  0.00    +0.027 C 
BRANCH  28  30
ATOM     29  C   UNL     1      -9.752   9.431  65.633  0.00  0.00    +0.000 C 
ATOM     30  C   UNL     1     -10.037   9.920  65.241  0.00  0.00    +0.002 C 
ENDBRANCH  28  30
ENDBRANCH  27  28
ENDBRANCH  24  27
ENDBRANCH  23  24
ENDBRANCH  19  23
ENDBRANCH  18  19
ENDBRANCH   1  18
TORSDOF 14
ENDMDL
MODEL 5
REMARK VINA RESULT:      -5.7      4.285      7.690
REMARK  Name = 
REMARK  14 active torsions:
REMARK  status: ('A' for Active; 'I' for Inactive)
REMARK    1  A    between atoms: C_2  and  C_3
REMARK    2  A    between atoms: C_3  and  C_4
REMARK    3  A    between atoms: C_4  and  S_5
REMARK    4  A    between atoms: S_5  and  N_8
REMARK    5  A    between atoms: N_8  and  C_9
REMARK    6  A    between atoms: C_9  and  C_10
REMARK    7  A    between atoms: C_9  and  C_28
REMARK    8  A    between atoms: C_10  and  C_11
REMARK    9  A    between atoms: C_14  and  O_15
REMARK   10  A    between atoms: O_15  and  C_16
REMARK   11  A    between atoms: C_16  and  C_17
REMARK   12  A    between atoms: C_17  and  C_18
REMARK   13  A    between atoms: C_18  and  C_19
REMARK   14  A    between atoms: C_19  and  C_20
REMARK                            x       y       z     vdW  Elec       q    Type
REMARK                         _______ _______ _______ _____ _____    ______ ____
ROOT
ATOM      1  C   UNL     1      -9.659  15.217  65.869  0.00  0.00    -0.020 A 
ATOM      2  C   UNL     1     -10.400  16.393  65.806  0.00  0.00    -0.001 A 
ATOM      3  C   UNL     1     -10.187  17.439  66.699  0.00  0.00    +0.037 A 
ATOM      4  C   UNL     1      -8.951  17.501  67.325  0.00  0.00    +0.139 A 
ATOM      5  C   UNL     1      -8.208  16.328  67.378  0.00  0.00    +0.037 A 
ATOM      6  C   UNL     1      -8.834  15.149  66.989  0.00  0.00    -0.001 A 
ENDROOT
BRANCH   4   7
ATOM      7  O   UNL     1      -8.616  18.522  68.220  0.00  0.00    -0.475 OA
BRANCH   7   8
ATOM      8  C   UNL     1      -8.571  19.872  67.767  0.00  0.00    +0.205 C 
BRANCH   8   9
ATOM      9  C   UNL     1      -7.318  20.013  66.930  0.00  0.00    +0.047 C 
BRANCH   9  10
ATOM     10  C   UNL     1      -6.210  20.689  67.707  0.00  0.00    +0.004 C 
BRANCH  10  11
ATOM     11  C   UNL     1      -5.171  19.626  68.006  0.00  0.00    +0.000 C 
BRANCH  11  12
ATOM     12  C   UNL     1      -4.750  19.598  69.443  0.00  0.00    +0.003 C 
ATOM     13  C   UNL     1      -4.105  20.937  69.750  0.00  0.00    +0.019 C 
ATOM     14  C   UNL     1      -3.536  20.950  71.146  0.00  0.00    +0.089 C 
ATOM     15  N   UNL     1      -4.135  19.878  71.938  0.00  0.00    -0.218 NA
ATOM     16  C   UNL     1      -5.582  19.870  71.743  0.00  0.00    +0.089 C 
ATOM     17  C   UNL     1      -5.903  19.332  70.367  0.00  0.00    +0.019 C 
ENDBRANCH  11  12
ENDBRANCH  10  11
ENDBRANCH   9  10
ENDBRANCH   8   9
ENDBRANCH   7   8
ENDBRANCH   4   7
BRANCH   1  18
ATOM     18  C   UNL     1     -10.114  13.994  65.275  0.00  0.00    +0.057 C 
BRANCH  18  19
ATOM     19  C   UNL     1     -11.719  13.738  65.644  0.00  0.00    +0.204 C 
BRANCH  19  20
ATOM     20  C   UNL     1     -12.173  13.317  64.127  0.00  0.00    +0.382 C 
ATOM     21  O   UNL     1     -13.077  12.283  64.048  0.00  0.00    -0.244 OA
ATOM     22  O   UNL     1     -12.584  14.398  63.596  0.00  0.00    -0.244 OA
ENDBRANCH  19  20
BRANCH  19  23
ATOM     23  N   UNL     1     -11.411  12.224  66.068  0.00  0.00    -0.072 NA
BRANCH  23  24
ATOM     24  S   UNL     1     -11.390  12.241  67.797  0.00  0.00    +0.058 S 
ATOM     25  O   UNL     1      -9.995  12.042  68.341  0.00  0.00    -0.156 OA
ATOM     26  O   UNL     1     -12.197  11.050  68.267  0.00  0.00    -0.156 OA
BRANCH  24  27
ATOM     27  C   UNL     1     -12.021  13.740  68.479  0.00  0.00    +0.171 C 
BRANCH  27  28
ATOM     28  C   UNL     1     -11.309  14.177  69.723  0.00  0.00    +0.027 C 
BRANCH  28  30
ATOM     29  C   UNL     1     -11.180  16.296  70.066  0.00  0.00    +0.000 C 
ATOM     30  C   UNL     1     -11.392  15.697  69.799  0.00  0.00    +0.002 C 
ENDBRANCH  28  30
ENDBRANCH  27  28
ENDBRANCH  24  27
ENDBRANCH  23  24
ENDBRANCH  19  23
ENDBRANCH  18  19
ENDBRANCH   1  18
TORSDOF 14
ENDMDL
MODEL 6
REMARK VINA RESULT:      -5.7      2.709      6.337
REMARK  Name = 
REMARK  14 active torsions:
REMARK  status: ('A' for Active; 'I' for Inactive)
REMARK    1  A    between atoms: C_2  and  C_3
REMARK    2  A    between atoms: C_3  and  C_4
REMARK    3  A    between atoms: C_4  and  S_5
REMARK    4  A    between atoms: S_5  and  N_8
REMARK    5  A    between atoms: N_8  and  C_9
REMARK    6  A    between atoms: C_9  and  C_10
REMARK    7  A    between atoms: C_9  and  C_28
REMARK    8  A    between atoms: C_10  and  C_11
REMARK    9  A    between atoms: C_14  and  O_15
REMARK   10  A    between atoms: O_15  and  C_16
REMARK   11  A    between atoms: C_16  and  C_17
REMARK   12  A    between atoms: C_17  and  C_18
REMARK   13  A    between atoms: C_18  and  C_19
REMARK   14  A    between atoms: C_19  and  C_20
REMARK                            x       y       z     vdW  Elec       q    Type
REMARK                         _______ _______ _______ _____ _____    ______ ____
ROOT
ATOM      1  C   UNL     1     -11.273  15.425  66.910  0.00  0.00    -0.020 A 
ATOM      2  C   UNL     1     -10.784  15.781  65.657  0.00  0.00    -0.001 A 
ATOM      3  C   UNL     1     -11.036  15.006  64.528  0.00  0.00    +0.037 A 
ATOM      4  C   UNL     1     -12.140  14.168  64.564  0.00  0.00    +0.139 A 
ATOM      5  C   UNL     1     -12.633  13.821  65.816  0.00  0.00    +0.037 A 
ATOM      6  C   UNL     1     -11.873  14.169  66.927  0.00  0.00    -0.001 A 
ENDROOT
BRANCH   4   7
ATOM      7  O   UNL     1     -12.505  13.363  63.479  0.00  0.00    -0.475 OA
BRANCH   7   8
ATOM      8  C   UNL     1     -12.303  11.954  63.547  0.00  0.00    +0.205 C 
BRANCH   8   9
ATOM      9  C   UNL     1     -10.829  11.709  63.307  0.00  0.00    +0.047 C 
BRANCH   9  10
ATOM     10  C   UNL     1     -10.288  10.647  64.239  0.00  0.00    +0.004 C 
BRANCH  10  11
ATOM     11  C   UNL     1      -9.866  11.353  65.512  0.00  0.00    +0.000 C 
BRANCH  11  12
ATOM     12  C   UNL     1     -10.292  10.635  66.755  0.00  0.00    +0.003 C 
ATOM     13  C   UNL     1      -9.878   9.183  66.601  0.00  0.00    +0.019 C 
ATOM     14  C   UNL     1     -10.382   8.356  67.757  0.00  0.00    +0.089 C 
ATOM     15  N   UNL     1     -10.726   9.226  68.880  0.00  0.00    -0.218 NA
ATOM     16  C   UNL     1      -9.659  10.200  69.093  0.00  0.00    +0.089 C 
ATOM     17  C   UNL     1      -9.694  11.237  67.993  0.00  0.00    +0.019 C 
ENDBRANCH  11  12
ENDBRANCH  10  11
ENDBRANCH   9  10
ENDBRANCH   8   9
ENDBRANCH   7   8
ENDBRANCH   4   7
BRANCH   1  18
ATOM     18  C   UNL     1     -10.704  15.933  68.124  0.00  0.00    +0.057 C 
BRANCH  18  19
ATOM     19  C   UNL     1     -10.270  14.675  69.127  0.00  0.00    +0.204 C 
BRANCH  19  20
ATOM     20  C   UNL     1      -8.659  14.970  69.076  0.00  0.00    +0.382 C 
ATOM     21  O   UNL     1      -7.986  14.385  68.029  0.00  0.00    -0.244 OA
ATOM     22  O   UNL     1      -8.558  16.239  69.106  0.00  0.00    -0.244 OA
ENDBRANCH  19  20
BRANCH  19  23
ATOM     23  N   UNL     1     -10.488  15.592  70.422  0.00  0.00    -0.072 NA
BRANCH  23  24
ATOM     24  S   UNL     1     -11.971  15.038  71.116  0.00  0.00    +0.058 S 
ATOM     25  O   UNL     1     -13.131  15.931  70.741  0.00  0.00    -0.156 OA
ATOM     26  O   UNL     1     -11.830  15.142  72.619  0.00  0.00    -0.156 OA
BRANCH  24  27
ATOM     27  C   UNL     1     -12.386  13.393  70.634  0.00  0.00    +0.171 C 
BRANCH  27  28
ATOM     28  C   UNL     1     -13.107  12.622  71.698  0.00  0.00    +0.027 C 
BRANCH  28  30
ATOM     29  C   UNL     1     -13.015  10.514  71.281  0.00  0.00    +0.000 C 
ATOM     30  C   UNL     1     -12.813  11.141  71.481  0.00  0.00    +0.002 C 
ENDBRANCH  28  30
ENDBRANCH  27  28
ENDBRANCH  24  27
ENDBRANCH  23  24
ENDBRANCH  19  23
ENDBRANCH  18  19
ENDBRANCH   1  18
TORSDOF 14
ENDMDL
MODEL 7
REMARK VINA RESULT:      -5.6      2.087      4.047
REMARK  Name = 
REMARK  14 active torsions:
REMARK  status: ('A' for Active; 'I' for Inactive)
REMARK    1  A    between atoms: C_2  and  C_3
REMARK    2  A    between atoms: C_3  and  C_4
REMARK    3  A    between atoms: C_4  and  S_5
REMARK    4  A    between atoms: S_5  and  N_8
REMARK    5  A    between atoms: N_8  and  C_9
REMARK    6  A    between atoms: C_9  and  C_10
REMARK    7  A    between atoms: C_9  and  C_28
REMARK    8  A    between atoms: C_10  and  C_11
REMARK    9  A    between atoms: C_14  and  O_15
REMARK   10  A    between atoms: O_15  and  C_16
REMARK   11  A    between atoms: C_16  and  C_17
REMARK   12  A    between atoms: C_17  and  C_18
REMARK   13  A    between atoms: C_18  and  C_19
REMARK   14  A    between atoms: C_19  and  C_20
REMARK                            x       y       z     vdW  Elec       q    Type
REMARK                         _______ _______ _______ _____ _____    ______ ____
ROOT
ATOM      1  C   UNL     1     -10.674  13.803  67.363  0.00  0.00    -0.020 A 
ATOM      2  C   UNL     1      -9.683  13.326  68.215  0.00  0.00    -0.001 A 
ATOM      3  C   UNL     1      -9.810  12.104  68.869  0.00  0.00    +0.037 A 
ATOM      4  C   UNL     1     -10.674  11.171  68.317  0.00  0.00    +0.139 A 
ATOM      5  C   UNL     1     -11.657  11.649  67.459  0.00  0.00    +0.037 A 
ATOM      6  C   UNL     1     -11.830  13.026  67.377  0.00  0.00    -0.001 A 
ENDROOT
BRANCH   4   7
ATOM      7  O   UNL     1     -10.861   9.901  68.873  0.00  0.00    -0.475 OA
BRANCH   7   8
ATOM      8  C   UNL     1     -11.080   9.770  70.275  0.00  0.00    +0.205 C 
BRANCH   8   9
ATOM      9  C   UNL     1     -12.524  10.143  70.532  0.00  0.00    +0.047 C 
BRANCH   9  10
ATOM     10  C   UNL     1     -12.634  11.242  71.565  0.00  0.00    +0.004 C 
BRANCH  10  11
ATOM     11  C   UNL     1     -12.935  12.524  70.813  0.00  0.00    +0.000 C 
BRANCH  11  12
ATOM     12  C   UNL     1     -12.586  13.758  71.586  0.00  0.00    +0.003 C 
ATOM     13  C   UNL     1     -12.244  14.840  70.578  0.00  0.00    +0.019 C 
ATOM     14  C   UNL     1     -11.758  16.086  71.274  0.00  0.00    +0.089 C 
ATOM     15  N   UNL     1     -12.162  16.063  72.679  0.00  0.00    -0.218 NA
ATOM     16  C   UNL     1     -13.565  15.674  72.782  0.00  0.00    +0.089 C 
ATOM     17  C   UNL     1     -13.703  14.196  72.488  0.00  0.00    +0.019 C 
ENDBRANCH  11  12
ENDBRANCH  10  11
ENDBRANCH   9  10
ENDBRANCH   8   9
ENDBRANCH   7   8
ENDBRANCH   4   7
BRANCH   1  18
ATOM     18  C   UNL     1     -10.783  15.191  67.020  0.00  0.00    +0.057 C 
BRANCH  18  19
ATOM     19  C   UNL     1     -10.091  15.471  65.530  0.00  0.00    +0.204 C 
BRANCH  19  20
ATOM     20  C   UNL     1     -11.504  15.550  64.703  0.00  0.00    +0.382 C 
ATOM     21  O   UNL     1     -11.625  16.618  63.845  0.00  0.00    -0.244 OA
ATOM     22  O   UNL     1     -11.612  14.418  64.130  0.00  0.00    -0.244 OA
ENDBRANCH  19  20
BRANCH  19  23
ATOM     23  N   UNL     1     -10.060  17.048  65.806  0.00  0.00    -0.072 NA
BRANCH  23  24
ATOM     24  S   UNL     1      -8.508  17.350  66.503  0.00  0.00    +0.058 S 
ATOM     25  O   UNL     1      -7.731  18.378  65.713  0.00  0.00    -0.156 OA
ATOM     26  O   UNL     1      -7.716  16.064  66.409  0.00  0.00    -0.156 OA
BRANCH  24  27
ATOM     27  C   UNL     1      -8.599  17.915  68.171  0.00  0.00    +0.171 C 
BRANCH  27  28
ATOM     28  C   UNL     1      -7.481  18.837  68.552  0.00  0.00    +0.027 C 
BRANCH  28  30
ATOM     29  C   UNL     1      -5.680  17.915  69.283  0.00  0.00    +0.000 C 
ATOM     30  C   UNL     1      -6.341  17.986  69.102  0.00  0.00    +0.002 C 
ENDBRANCH  28  30
ENDBRANCH  27  28
ENDBRANCH  24  27
ENDBRANCH  23  24
ENDBRANCH  19  23
ENDBRANCH  18  19
ENDBRANCH   1  18
TORSDOF 14
ENDMDL
MODEL 8
REMARK VINA RESULT:      -5.6      3.242      6.061
REMARK  Name = 
REMARK  14 active torsions:
REMARK  status: ('A' for Active; 'I' for Inactive)
REMARK    1  A    between atoms: C_2  and  C_3
REMARK    2  A    between atoms: C_3  and  C_4
REMARK    3  A    between atoms: C_4  and  S_5
REMARK    4  A    between atoms: S_5  and  N_8
REMARK    5  A    between atoms: N_8  and  C_9
REMARK    6  A    between atoms: C_9  and  C_10
REMARK    7  A    between atoms: C_9  and  C_28
REMARK    8  A    between atoms: C_10  and  C_11
REMARK    9  A    between atoms: C_14  and  O_15
REMARK   10  A    between atoms: O_15  and  C_16
REMARK   11  A    between atoms: C_16  and  C_17
REMARK   12  A    between atoms: C_17  and  C_18
REMARK   13  A    between atoms: C_18  and  C_19
REMARK   14  A    between atoms: C_19  and  C_20
REMARK                            x       y       z     vdW  Elec       q    Type
REMARK                         _______ _______ _______ _____ _____    ______ ____
ROOT
ATOM      1  C   UNL     1     -11.471  14.077  67.647  0.00  0.00    -0.020 A 
ATOM      2  C   UNL     1     -11.673  14.251  69.013  0.00  0.00    -0.001 A 
ATOM      3  C   UNL     1     -11.924  13.173  69.857  0.00  0.00    +0.037 A 
ATOM      4  C   UNL     1     -11.509  11.920  69.433  0.00  0.00    +0.139 A 
ATOM      5  C   UNL     1     -11.299  11.751  68.070  0.00  0.00    +0.037 A 
ATOM      6  C   UNL     1     -11.709  12.773  67.221  0.00  0.00    -0.001 A 
ENDROOT
BRANCH   4   7
ATOM      7  O   UNL     1     -11.685  10.770  70.209  0.00  0.00    -0.475 OA
BRANCH   7   8
ATOM      8  C   UNL     1     -13.001  10.356  70.568  0.00  0.00    +0.205 C 
BRANCH   8   9
ATOM      9  C   UNL     1     -12.918   9.795  71.971  0.00  0.00    +0.047 C 
BRANCH   9  10
ATOM     10  C   UNL     1     -11.919   8.661  72.052  0.00  0.00    +0.004 C 
BRANCH  10  11
ATOM     11  C   UNL     1     -12.659   7.395  71.665  0.00  0.00    +0.000 C 
BRANCH  11  12
ATOM     12  C   UNL     1     -11.747   6.270  71.286  0.00  0.00    +0.003 C 
ATOM     13  C   UNL     1     -11.317   6.502  69.849  0.00  0.00    +0.019 C 
ATOM     14  C   UNL     1     -10.493   5.345  69.343  0.00  0.00    +0.089 C 
ATOM     15  N   UNL     1      -9.982   4.567  70.469  0.00  0.00    -0.218 NA
ATOM     16  C   UNL     1      -9.429   5.465  71.478  0.00  0.00    +0.089 C 
ATOM     17  C   UNL     1     -10.556   6.175  72.195  0.00  0.00    +0.019 C 
ENDBRANCH  11  12
ENDBRANCH  10  11
ENDBRANCH   9  10
ENDBRANCH   8   9
ENDBRANCH   7   8
ENDBRANCH   4   7
BRANCH   1  18
ATOM     18  C   UNL     1     -11.632  15.148  66.709  0.00  0.00    +0.057 C 
BRANCH  18  19
ATOM     19  C   UNL     1     -10.481  15.039  65.508  0.00  0.00    +0.204 C 
BRANCH  19  20
ATOM     20  C   UNL     1     -11.526  15.221  64.259  0.00  0.00    +0.382 C 
ATOM     21  O   UNL     1     -12.765  14.653  64.440  0.00  0.00    -0.244 OA
ATOM     22  O   UNL     1     -11.564  16.476  64.044  0.00  0.00    -0.244 OA
ENDBRANCH  19  20
BRANCH  19  23
ATOM     23  N   UNL     1     -10.185  16.610  65.607  0.00  0.00    -0.072 NA
BRANCH  23  24
ATOM     24  S   UNL     1      -8.697  16.730  66.478  0.00  0.00    +0.058 S 
ATOM     25  O   UNL     1      -7.682  17.570  65.737  0.00  0.00    -0.156 OA
ATOM     26  O   UNL     1      -8.110  15.338  66.558  0.00  0.00    -0.156 OA
BRANCH  24  27
ATOM     27  C   UNL     1      -8.894  17.426  68.086  0.00  0.00    +0.171 C 
BRANCH  27  28
ATOM     28  C   UNL     1     -10.156  18.218  68.244  0.00  0.00    +0.027 C 
BRANCH  28  30
ATOM     29  C   UNL     1     -10.081  20.165  67.333  0.00  0.00    +0.000 C 
ATOM     30  C   UNL     1      -9.894  19.625  67.717  0.00  0.00    +0.002 C 
ENDBRANCH  28  30
ENDBRANCH  27  28
ENDBRANCH  24  27
ENDBRANCH  23  24
ENDBRANCH  19  23
ENDBRANCH  18  19
ENDBRANCH   1  18
TORSDOF 14
ENDMDL
MODEL 9
REMARK VINA RESULT:      -5.6      1.995      3.970
REMARK  Name = 
REMARK  14 active torsions:
REMARK  status: ('A' for Active; 'I' for Inactive)
REMARK    1  A    between atoms: C_2  and  C_3
REMARK    2  A    between atoms: C_3  and  C_4
REMARK    3  A    between atoms: C_4  and  S_5
REMARK    4  A    between atoms: S_5  and  N_8
REMARK    5  A    between atoms: N_8  and  C_9
REMARK    6  A    between atoms: C_9  and  C_10
REMARK    7  A    between atoms: C_9  and  C_28
REMARK    8  A    between atoms: C_10  and  C_11
REMARK    9  A    between atoms: C_14  and  O_15
REMARK   10  A    between atoms: O_15  and  C_16
REMARK   11  A    between atoms: C_16  and  C_17
REMARK   12  A    between atoms: C_17  and  C_18
REMARK   13  A    between atoms: C_18  and  C_19
REMARK   14  A    between atoms: C_19  and  C_20
REMARK                            x       y       z     vdW  Elec       q    Type
REMARK                         _______ _______ _______ _____ _____    ______ ____
ROOT
ATOM      1  C   UNL     1     -10.767  12.790  66.541  0.00  0.00    -0.020 A 
ATOM      2  C   UNL     1      -9.620  12.791  67.328  0.00  0.00    -0.001 A 
ATOM      3  C   UNL     1      -9.244  11.677  68.073  0.00  0.00    +0.037 A 
ATOM      4  C   UNL     1      -9.734  10.444  67.669  0.00  0.00    +0.139 A 
ATOM      5  C   UNL     1     -10.875  10.446  66.875  0.00  0.00    +0.037 A 
ATOM      6  C   UNL     1     -11.550  11.651  66.716  0.00  0.00    -0.001 A 
ENDROOT
BRANCH   4   7
ATOM      7  O   UNL     1      -9.403   9.254  68.325  0.00  0.00    -0.475 OA
BRANCH   7   8
ATOM      8  C   UNL     1      -9.525   9.173  69.743  0.00  0.00    +0.205 C 
BRANCH   8   9
ATOM      9  C   UNL     1     -10.987   8.930  70.046  0.00  0.00    +0.047 C 
BRANCH   9  10
ATOM     10  C   UNL     1     -11.515   9.928  71.052  0.00  0.00    +0.004 C 
BRANCH  10  11
ATOM     11  C   UNL     1     -12.182  11.037  70.263  0.00  0.00    +0.000 C 
BRANCH  11  12
ATOM     12  C   UNL     1     -12.240  12.337  71.004  0.00  0.00    +0.003 C 
ATOM     13  C   UNL     1     -12.374  13.440  69.970  0.00  0.00    +0.019 C 
ATOM     14  C   UNL     1     -12.313  14.797  70.623  0.00  0.00    +0.089 C 
ATOM     15  N   UNL     1     -12.583  14.675  72.054  0.00  0.00    -0.218 NA
ATOM     16  C   UNL     1     -13.747  13.820  72.264  0.00  0.00    +0.089 C 
ATOM     17  C   UNL     1     -13.374  12.380  71.987  0.00  0.00    +0.019 C 
ENDBRANCH  11  12
ENDBRANCH  10  11
ENDBRANCH   9  10
ENDBRANCH   8   9
ENDBRANCH   7   8
ENDBRANCH   4   7
BRANCH   1  18
ATOM     18  C   UNL     1     -11.402  14.002  66.116  0.00  0.00    +0.057 C 
BRANCH  18  19
ATOM     19  C   UNL     1     -10.287  15.018  65.407  0.00  0.00    +0.204 C 
BRANCH  19  20
ATOM     20  C   UNL     1     -11.284  15.560  64.224  0.00  0.00    +0.382 C 
ATOM     21  O   UNL     1     -12.540  15.001  64.212  0.00  0.00    -0.244 OA
ATOM     22  O   UNL     1     -11.286  16.826  64.353  0.00  0.00    -0.244 OA
ENDBRANCH  19  20
BRANCH  19  23
ATOM     23  N   UNL     1     -10.684  16.203  66.409  0.00  0.00    -0.072 NA
BRANCH  23  24
ATOM     24  S   UNL     1      -9.248  16.522  67.315  0.00  0.00    +0.058 S 
ATOM     25  O   UNL     1      -8.031  15.898  66.673  0.00  0.00    -0.156 OA
ATOM     26  O   UNL     1      -9.406  15.846  68.660  0.00  0.00    -0.156 OA
BRANCH  24  27
ATOM     27  C   UNL     1      -8.924  18.245  67.509  0.00  0.00    +0.171 C 
BRANCH  27  28
ATOM     28  C   UNL     1     -10.153  19.057  67.784  0.00  0.00    +0.027 C 
BRANCH  28  30
ATOM     29  C   UNL     1     -10.462  20.011  65.881  0.00  0.00    +0.000 C 
ATOM     30  C   UNL     1     -10.605  19.680  66.467  0.00  0.00    +0.002 C 
ENDBRANCH  28  30
ENDBRANCH  27  28
ENDBRANCH  24  27
ENDBRANCH  23  24
ENDBRANCH  19  23
ENDBRANCH  18  19
ENDBRANCH   1  18
TORSDOF 14
ENDMDL
