MODEL 1
REMARK VINA RESULT:      -4.3      0.000      0.000
REMARK  Name = 
REMARK  1 active torsions:
REMARK  status: ('A' for Active; 'I' for Inactive)
REMARK    1  A    between atoms: N_2  and  C_3
REMARK                            x       y       z     vdW  Elec       q    Type
REMARK                         _______ _______ _______ _____ _____    ______ ____
ROOT
ATOM      1  C   UNL     1      -9.939  17.580  66.689  0.00  0.00    +0.059 C 
ATOM      2  C   UNL     1      -8.457  17.512  67.000  0.00  0.00    +0.014 C 
ATOM      3  C   UNL     1      -7.446  17.854  66.126  0.00  0.00    +0.001 C 
ATOM      4  C   UNL     1      -8.205  17.050  68.417  0.00  0.00    +0.001 C 
ATOM      5  C   UNL     1      -9.394  18.717  67.409  0.00  0.00    +0.001 C 
ATOM      6  C   UNL     1      -8.897  19.688  66.125  0.00  0.00    +0.001 C 
ATOM      7  C   UNL     1      -8.575  19.534  68.463  0.00  0.00    +0.000 C 
ATOM      8  C   UNL     1     -10.182  19.680  68.224  0.00  0.00    +0.001 C 
ATOM      9  C   UNL     1     -10.372  19.196  66.631  0.00  0.00    +0.015 C 
ATOM     10  C   UNL     1     -10.680  16.992  67.860  0.00  0.00    +0.017 C 
ENDROOT
BRANCH   1  12
ATOM     11  C   UNL     1     -10.562  16.209  65.716  0.00  0.00    +0.107 C 
ATOM     12  N   UNL     1     -10.344  17.204  65.411  0.00  0.00    -0.219 NA
ENDBRANCH   1  12
TORSDOF 1
ENDMDL
MODEL 2
REMARK VINA RESULT:      -4.2      4.143      5.575
REMARK  Name = 
REMARK  1 active torsions:
REMARK  status: ('A' for Active; 'I' for Inactive)
REMARK    1  A    between atoms: N_2  and  C_3
REMARK                            x       y       z     vdW  Elec       q    Type
REMARK                         _______ _______ _______ _____ _____    ______ ____
ROOT
ATOM      1  C   UNL     1     -10.675  12.863  65.026  0.00  0.00    +0.059 C 
ATOM      2  C   UNL     1     -10.336  14.301  65.367  0.00  0.00    +0.014 C 
ATOM      3  C   UNL     1     -10.964  15.412  64.843  0.00  0.00    +0.001 C 
ATOM      4  C   UNL     1      -9.230  14.384  66.395  0.00  0.00    +0.001 C 
ATOM      5  C   UNL     1     -11.274  13.380  66.244  0.00  0.00    +0.001 C 
ATOM      6  C   UNL     1     -12.694  14.049  65.633  0.00  0.00    +0.001 C 
ATOM      7  C   UNL     1     -11.408  14.120  67.616  0.00  0.00    +0.000 C 
ATOM      8  C   UNL     1     -11.793  12.554  67.368  0.00  0.00    +0.001 C 
ATOM      9  C   UNL     1     -12.152  12.510  65.732  0.00  0.00    +0.015 C 
ATOM     10  C   UNL     1      -9.666  11.980  65.709  0.00  0.00    +0.017 C 
ENDROOT
BRANCH   1  12
ATOM     11  C   UNL     1     -10.104  12.020  63.552  0.00  0.00    +0.107 C 
ATOM     12  N   UNL     1     -10.997  12.578  63.702  0.00  0.00    -0.219 NA
ENDBRANCH   1  12
TORSDOF 1
ENDMDL
MODEL 3
REMARK VINA RESULT:      -4.1      4.474      6.178
REMARK  Name = 
REMARK  1 active torsions:
REMARK  status: ('A' for Active; 'I' for Inactive)
REMARK    1  A    between atoms: N_2  and  C_3
REMARK                            x       y       z     vdW  Elec       q    Type
REMARK                         _______ _______ _______ _____ _____    ______ ____
ROOT
ATOM      1  C   UNL     1     -10.882  12.057  66.558  0.00  0.00    +0.059 C 
ATOM      2  C   UNL     1     -11.386  12.311  65.152  0.00  0.00    +0.014 C 
ATOM      3  C   UNL     1     -12.689  12.619  64.817  0.00  0.00    +0.001 C 
ATOM      4  C   UNL     1     -10.271  12.221  64.135  0.00  0.00    +0.001 C 
ATOM      5  C   UNL     1     -10.673  13.400  66.048  0.00  0.00    +0.001 C 
ATOM      6  C   UNL     1     -12.118  14.135  66.505  0.00  0.00    +0.001 C 
ATOM      7  C   UNL     1     -10.290  14.555  65.064  0.00  0.00    +0.000 C 
ATOM      8  C   UNL     1      -9.668  14.371  66.560  0.00  0.00    +0.001 C 
ATOM      9  C   UNL     1     -10.869  13.524  67.366  0.00  0.00    +0.015 C 
ATOM     10  C   UNL     1      -9.444  11.624  66.458  0.00  0.00    +0.017 C 
ENDROOT
BRANCH   1  12
ATOM     11  C   UNL     1     -11.100  10.481  67.384  0.00  0.00    +0.107 C 
ATOM     12  N   UNL     1     -11.716  11.347  67.419  0.00  0.00    -0.219 NA
ENDBRANCH   1  12
TORSDOF 1
ENDMDL
MODEL 4
REMARK VINA RESULT:      -4.1      1.414      2.289
REMARK  Name = 
REMARK  1 active torsions:
REMARK  status: ('A' for Active; 'I' for Inactive)
REMARK    1  A    between atoms: N_2  and  C_3
REMARK                            x       y       z     vdW  Elec       q    Type
REMARK                         _______ _______ _______ _____ _____    ______ ____
ROOT
ATOM      1  C   UNL     1      -9.648  17.664  68.212  0.00  0.00    +0.059 C 
ATOM      2  C   UNL     1      -9.515  17.828  66.710  0.00  0.00    +0.014 C 
ATOM      3  C   UNL     1     -10.440  18.444  65.893  0.00  0.00    +0.001 C 
ATOM      4  C   UNL     1      -8.211  17.258  66.201  0.00  0.00    +0.001 C 
ATOM      5  C   UNL     1      -8.845  18.790  67.769  0.00  0.00    +0.001 C 
ATOM      6  C   UNL     1     -10.031  19.975  67.612  0.00  0.00    +0.001 C 
ATOM      7  C   UNL     1      -7.786  19.613  66.964  0.00  0.00    +0.000 C 
ATOM      8  C   UNL     1      -7.823  19.496  68.590  0.00  0.00    +0.001 C 
ATOM      9  C   UNL     1      -9.437  19.172  68.907  0.00  0.00    +0.015 C 
ATOM     10  C   UNL     1      -8.494  16.822  68.685  0.00  0.00    +0.017 C 
ENDROOT
BRANCH   1  12
ATOM     11  C   UNL     1     -10.704  16.332  68.780  0.00  0.00    +0.107 C 
ATOM     12  N   UNL     1     -10.914  17.372  68.714  0.00  0.00    -0.219 NA
ENDBRANCH   1  12
TORSDOF 1
ENDMDL
MODEL 5
REMARK VINA RESULT:      -4.1      4.599      5.883
REMARK  Name = 
REMARK  1 active torsions:
REMARK  status: ('A' for Active; 'I' for Inactive)
REMARK    1  A    between atoms: N_2  and  C_3
REMARK                            x       y       z     vdW  Elec       q    Type
REMARK                         _______ _______ _______ _____ _____    ______ ____
ROOT
ATOM      1  C   UNL     1     -11.435  12.621  67.132  0.00  0.00    +0.059 C 
ATOM      2  C   UNL     1      -9.951  12.774  66.860  0.00  0.00    +0.014 C 
ATOM      3  C   UNL     1      -9.147  11.817  66.277  0.00  0.00    +0.001 C 
ATOM      4  C   UNL     1      -9.446  14.136  67.279  0.00  0.00    +0.001 C 
ATOM      5  C   UNL     1     -11.087  13.330  65.913  0.00  0.00    +0.001 C 
ATOM      6  C   UNL     1     -10.970  12.046  64.829  0.00  0.00    +0.001 C 
ATOM      7  C   UNL     1     -10.366  14.329  64.950  0.00  0.00    +0.000 C 
ATOM      8  C   UNL     1     -11.980  14.264  65.174  0.00  0.00    +0.001 C 
ATOM      9  C   UNL     1     -12.229  12.679  65.659  0.00  0.00    +0.015 C 
ATOM     10  C   UNL     1     -11.888  13.834  67.897  0.00  0.00    +0.017 C 
ENDROOT
BRANCH   1  12
ATOM     11  C   UNL     1     -11.795  11.644  68.591  0.00  0.00    +0.107 C 
ATOM     12  N   UNL     1     -11.882  11.375  67.566  0.00  0.00    -0.219 NA
ENDBRANCH   1  12
TORSDOF 1
ENDMDL
MODEL 6
REMARK VINA RESULT:      -4.1      4.547      6.323
REMARK  Name = 
REMARK  1 active torsions:
REMARK  status: ('A' for Active; 'I' for Inactive)
REMARK    1  A    between atoms: N_2  and  C_3
REMARK                            x       y       z     vdW  Elec       q    Type
REMARK                         _______ _______ _______ _____ _____    ______ ____
ROOT
ATOM      1  C   UNL     1     -11.488  12.605  64.973  0.00  0.00    +0.059 C 
ATOM      2  C   UNL     1     -11.317  13.915  65.715  0.00  0.00    +0.014 C 
ATOM      3  C   UNL     1     -12.146  14.377  66.716  0.00  0.00    +0.001 C 
ATOM      4  C   UNL     1     -10.088  14.663  65.250  0.00  0.00    +0.001 C 
ATOM      5  C   UNL     1     -10.544  12.585  66.076  0.00  0.00    +0.001 C 
ATOM      6  C   UNL     1     -11.570  12.202  67.356  0.00  0.00    +0.001 C 
ATOM      7  C   UNL     1      -9.380  13.030  67.022  0.00  0.00    +0.000 C 
ATOM      8  C   UNL     1      -9.452  11.590  66.259  0.00  0.00    +0.001 C 
ATOM      9  C   UNL     1     -11.098  11.368  66.031  0.00  0.00    +0.015 C 
ATOM     10  C   UNL     1     -10.455  12.559  63.880  0.00  0.00    +0.017 C 
ENDROOT
BRANCH   1  12
ATOM     11  C   UNL     1     -12.624  12.337  63.612  0.00  0.00    +0.107 C 
ATOM     12  N   UNL     1     -12.787  12.213  64.656  0.00  0.00    -0.219 NA
ENDBRANCH   1  12
TORSDOF 1
ENDMDL
MODEL 7
REMARK VINA RESULT:      -4.1      1.225      2.848
REMARK  Name = 
REMARK  1 active torsions:
REMARK  status: ('A' for Active; 'I' for Inactive)
REMARK    1  A    between atoms: N_2  and  C_3
REMARK                            x       y       z     vdW  Elec       q    Type
REMARK                         _______ _______ _______ _____ _____    ______ ____
ROOT
ATOM      1  C   UNL     1      -9.782  17.559  67.601  0.00  0.00    +0.059 C 
ATOM      2  C   UNL     1     -10.121  19.023  67.400  0.00  0.00    +0.014 C 
ATOM      3  C   UNL     1     -10.059  19.995  68.377  0.00  0.00    +0.001 C 
ATOM      4  C   UNL     1     -10.514  19.313  65.969  0.00  0.00    +0.001 C 
ATOM      5  C   UNL     1      -8.725  18.379  67.036  0.00  0.00    +0.001 C 
ATOM      6  C   UNL     1      -7.976  18.932  68.440  0.00  0.00    +0.001 C 
ATOM      7  C   UNL     1      -8.010  19.436  66.130  0.00  0.00    +0.000 C 
ATOM      8  C   UNL     1      -7.563  17.872  66.257  0.00  0.00    +0.001 C 
ATOM      9  C   UNL     1      -8.121  17.444  67.778  0.00  0.00    +0.015 C 
ATOM     10  C   UNL     1     -10.116  16.832  66.326  0.00  0.00    +0.017 C 
ENDROOT
BRANCH   1  12
ATOM     11  C   UNL     1     -11.022  16.516  68.367  0.00  0.00    +0.107 C 
ATOM     12  N   UNL     1     -10.166  16.971  68.804  0.00  0.00    -0.219 NA
ENDBRANCH   1  12
TORSDOF 1
ENDMDL
MODEL 8
REMARK VINA RESULT:      -4.0      1.284      3.080
REMARK  Name = 
REMARK  1 active torsions:
REMARK  status: ('A' for Active; 'I' for Inactive)
REMARK    1  A    between atoms: N_2  and  C_3
REMARK                            x       y       z     vdW  Elec       q    Type
REMARK                         _______ _______ _______ _____ _____    ______ ____
ROOT
ATOM      1  C   UNL     1      -8.259  18.442  66.868  0.00  0.00    +0.059 C 
ATOM      2  C   UNL     1      -9.610  19.114  67.007  0.00  0.00    +0.014 C 
ATOM      3  C   UNL     1     -10.567  19.188  66.017  0.00  0.00    +0.001 C 
ATOM      4  C   UNL     1      -9.810  19.679  68.396  0.00  0.00    +0.001 C 
ATOM      5  C   UNL     1      -9.297  17.645  67.497  0.00  0.00    +0.001 C 
ATOM      6  C   UNL     1      -9.997  16.924  66.145  0.00  0.00    +0.001 C 
ATOM      7  C   UNL     1     -10.490  17.261  68.433  0.00  0.00    +0.000 C 
ATOM      8  C   UNL     1      -9.066  16.468  68.378  0.00  0.00    +0.001 C 
ATOM      9  C   UNL     1      -8.517  16.788  66.827  0.00  0.00    +0.015 C 
ATOM     10  C   UNL     1      -7.480  18.711  68.127  0.00  0.00    +0.017 C 
ENDROOT
BRANCH   1  12
ATOM     11  C   UNL     1      -7.025  19.411  66.001  0.00  0.00    +0.107 C 
ATOM     12  N   UNL     1      -7.595  18.584  65.651  0.00  0.00    -0.219 NA
ENDBRANCH   1  12
TORSDOF 1
ENDMDL
MODEL 9
REMARK VINA RESULT:      -4.0      1.927      3.357
REMARK  Name = 
REMARK  1 active torsions:
REMARK  status: ('A' for Active; 'I' for Inactive)
REMARK    1  A    between atoms: N_2  and  C_3
REMARK                            x       y       z     vdW  Elec       q    Type
REMARK                         _______ _______ _______ _____ _____    ______ ____
ROOT
ATOM      1  C   UNL     1      -7.786  19.576  67.164  0.00  0.00    +0.059 C 
ATOM      2  C   UNL     1      -7.912  18.085  67.409  0.00  0.00    +0.014 C 
ATOM      3  C   UNL     1      -8.105  17.495  68.641  0.00  0.00    +0.001 C 
ATOM      4  C   UNL     1      -7.833  17.300  66.119  0.00  0.00    +0.001 C 
ATOM      5  C   UNL     1      -9.104  19.009  66.939  0.00  0.00    +0.001 C 
ATOM      6  C   UNL     1      -9.765  19.136  68.483  0.00  0.00    +0.001 C 
ATOM      7  C   UNL     1     -10.215  18.025  66.444  0.00  0.00    +0.000 C 
ATOM      8  C   UNL     1     -10.174  19.620  66.104  0.00  0.00    +0.001 C 
ATOM      9  C   UNL     1      -9.300  20.255  67.385  0.00  0.00    +0.015 C 
ATOM     10  C   UNL     1      -7.449  19.774  65.711  0.00  0.00    +0.017 C 
ENDROOT
BRANCH   1  12
ATOM     11  C   UNL     1      -6.214  20.374  67.485  0.00  0.00    +0.107 C 
ATOM     12  N   UNL     1      -7.077  20.322  68.103  0.00  0.00    -0.219 NA
ENDBRANCH   1  12
TORSDOF 1
ENDMDL
