MODEL 1
REMARK VINA RESULT:      -6.3      0.000      0.000
REMARK  Name = 
REMARK  4 active torsions:
REMARK  status: ('A' for Active; 'I' for Inactive)
REMARK    1  A    between atoms: O_2  and  C_3
REMARK    2  A    between atoms: C_8  and  C_9
REMARK    3  A    between atoms: C_9  and  C_10
REMARK    4  A    between atoms: C_10  and  C_11
REMARK                            x       y       z     vdW  Elec       q    Type
REMARK                         _______ _______ _______ _____ _____    ______ ____
ROOT
ATOM      1  C   UNL     1     -12.179  14.734  71.859  0.00  0.00    +0.139 A 
ATOM      2  C   UNL     1     -12.373  13.630  71.035  0.00  0.00    +0.037 A 
ATOM      3  C   UNL     1     -12.037  13.655  69.713  0.00  0.00    +0.003 A 
ATOM      4  C   UNL     1     -11.788  14.867  69.080  0.00  0.00    -0.000 A 
ATOM      5  C   UNL     1     -11.702  14.937  67.694  0.00  0.00    -0.004 A 
ATOM      6  C   UNL     1     -11.875  13.803  66.908  0.00  0.00    -0.022 A 
ATOM      7  C   UNL     1     -11.678  12.596  67.567  0.00  0.00    -0.004 A 
ATOM      8  C   UNL     1     -11.561  15.981  69.864  0.00  0.00    +0.003 A 
ATOM      9  C   UNL     1     -11.775  12.529  68.951  0.00  0.00    -0.000 A 
ATOM     10  C   UNL     1     -11.639  15.854  71.241  0.00  0.00    +0.037 A 
ENDROOT
BRANCH   1  12
ATOM     11  C   UNL     1     -12.540  15.628  74.095  0.00  0.00    +0.252 C 
ATOM     12  O   UNL     1     -13.029  14.933  72.953  0.00  0.00    -0.471 OA
ENDBRANCH   1  12
BRANCH   6  13
ATOM     13  C   UNL     1     -12.636  13.897  65.625  0.00  0.00    +0.034 C 
BRANCH  13  14
ATOM     14  C   UNL     1     -11.750  13.775  64.419  0.00  0.00    +0.069 C 
BRANCH  14  15
ATOM     15  C   UNL     1     -11.942  12.454  63.782  0.00  0.00    +0.151 C 
ATOM     16  O   UNL     1     -13.068  12.093  63.479  0.00  0.00    -0.296 OA
ATOM     17  C   UNL     1     -10.836  11.490  63.519  0.00  0.00    +0.072 C 
ENDBRANCH  14  15
ENDBRANCH  13  14
ENDBRANCH   6  13
TORSDOF 4
ENDMDL
MODEL 2
REMARK VINA RESULT:      -6.1      1.151      7.104
REMARK  Name = 
REMARK  4 active torsions:
REMARK  status: ('A' for Active; 'I' for Inactive)
REMARK    1  A    between atoms: O_2  and  C_3
REMARK    2  A    between atoms: C_8  and  C_9
REMARK    3  A    between atoms: C_9  and  C_10
REMARK    4  A    between atoms: C_10  and  C_11
REMARK                            x       y       z     vdW  Elec       q    Type
REMARK                         _______ _______ _______ _____ _____    ______ ____
ROOT
ATOM      1  C   UNL     1     -11.508  13.319  64.966  0.00  0.00    +0.139 A 
ATOM      2  C   UNL     1     -11.479  14.557  65.599  0.00  0.00    +0.037 A 
ATOM      3  C   UNL     1     -11.414  14.665  66.958  0.00  0.00    +0.003 A 
ATOM      4  C   UNL     1     -11.690  13.564  67.759  0.00  0.00    -0.000 A 
ATOM      5  C   UNL     1     -11.882  13.715  69.128  0.00  0.00    -0.004 A 
ATOM      6  C   UNL     1     -11.818  14.969  69.725  0.00  0.00    -0.022 A 
ATOM      7  C   UNL     1     -11.124  15.930  69.000  0.00  0.00    -0.004 A 
ATOM      8  C   UNL     1     -11.698  12.313  67.173  0.00  0.00    +0.003 A 
ATOM      9  C   UNL     1     -10.944  15.779  67.632  0.00  0.00    -0.000 A 
ATOM     10  C   UNL     1     -11.481  12.215  65.809  0.00  0.00    +0.037 A 
ENDROOT
BRANCH   1  12
ATOM     11  C   UNL     1     -12.567  11.897  63.295  0.00  0.00    +0.252 C 
ATOM     12  O   UNL     1     -12.164  13.190  63.736  0.00  0.00    -0.471 OA
ENDBRANCH   1  12
BRANCH   6  13
ATOM     13  C   UNL     1     -12.786  15.329  70.805  0.00  0.00    +0.034 C 
BRANCH  13  14
ATOM     14  C   UNL     1     -12.146  16.107  71.919  0.00  0.00    +0.069 C 
BRANCH  14  15
ATOM     15  C   UNL     1     -12.943  15.965  73.157  0.00  0.00    +0.151 C 
ATOM     16  O   UNL     1     -14.111  16.319  73.161  0.00  0.00    -0.296 OA
ATOM     17  C   UNL     1     -12.395  15.451  74.444  0.00  0.00    +0.072 C 
ENDBRANCH  14  15
ENDBRANCH  13  14
ENDBRANCH   6  13
TORSDOF 4
ENDMDL
MODEL 3
REMARK VINA RESULT:      -6.1      3.743      5.542
REMARK  Name = 
REMARK  4 active torsions:
REMARK  status: ('A' for Active; 'I' for Inactive)
REMARK    1  A    between atoms: O_2  and  C_3
REMARK    2  A    between atoms: C_8  and  C_9
REMARK    3  A    between atoms: C_9  and  C_10
REMARK    4  A    between atoms: C_10  and  C_11
REMARK                            x       y       z     vdW  Elec       q    Type
REMARK                         _______ _______ _______ _____ _____    ______ ____
ROOT
ATOM      1  C   UNL     1     -12.979  15.179  71.596  0.00  0.00    +0.139 A 
ATOM      2  C   UNL     1     -12.108  14.472  70.774  0.00  0.00    +0.037 A 
ATOM      3  C   UNL     1     -12.206  13.119  70.622  0.00  0.00    +0.003 A 
ATOM      4  C   UNL     1     -12.965  12.371  71.514  0.00  0.00    -0.000 A 
ATOM      5  C   UNL     1     -12.869  10.984  71.534  0.00  0.00    -0.004 A 
ATOM      6  C   UNL     1     -12.005  10.314  70.675  0.00  0.00    -0.022 A 
ATOM      7  C   UNL     1     -11.624  11.030  69.548  0.00  0.00    -0.004 A 
ATOM      8  C   UNL     1     -13.864  13.034  72.327  0.00  0.00    +0.003 A 
ATOM      9  C   UNL     1     -11.712  12.416  69.537  0.00  0.00    -0.000 A 
ATOM     10  C   UNL     1     -13.934  14.415  72.254  0.00  0.00    +0.037 A 
ENDROOT
BRANCH   1  12
ATOM     11  C   UNL     1     -12.351  16.370  73.626  0.00  0.00    +0.252 C 
ATOM     12  O   UNL     1     -12.539  16.355  72.214  0.00  0.00    -0.471 OA
ENDBRANCH   1  12
BRANCH   6  13
ATOM     13  C   UNL     1     -11.231   9.135  71.171  0.00  0.00    +0.034 C 
BRANCH  13  14
ATOM     14  C   UNL     1     -12.003   8.312  72.161  0.00  0.00    +0.069 C 
BRANCH  14  15
ATOM     15  C   UNL     1     -12.870   7.347  71.449  0.00  0.00    +0.151 C 
ATOM     16  O   UNL     1     -12.365   6.530  70.698  0.00  0.00    -0.296 OA
ATOM     17  C   UNL     1     -14.357   7.333  71.554  0.00  0.00    +0.072 C 
ENDBRANCH  14  15
ENDBRANCH  13  14
ENDBRANCH   6  13
TORSDOF 4
ENDMDL
MODEL 4
REMARK VINA RESULT:      -5.9      3.760      5.723
REMARK  Name = 
REMARK  4 active torsions:
REMARK  status: ('A' for Active; 'I' for Inactive)
REMARK    1  A    between atoms: O_2  and  C_3
REMARK    2  A    between atoms: C_8  and  C_9
REMARK    3  A    between atoms: C_9  and  C_10
REMARK    4  A    between atoms: C_10  and  C_11
REMARK                            x       y       z     vdW  Elec       q    Type
REMARK                         _______ _______ _______ _____ _____    ______ ____
ROOT
ATOM      1  C   UNL     1     -12.751  15.205  71.786  0.00  0.00    +0.139 A 
ATOM      2  C   UNL     1     -11.959  14.546  70.853  0.00  0.00    +0.037 A 
ATOM      3  C   UNL     1     -12.141  13.225  70.564  0.00  0.00    +0.003 A 
ATOM      4  C   UNL     1     -12.903  12.426  71.408  0.00  0.00    -0.000 A 
ATOM      5  C   UNL     1     -12.886  11.042  71.277  0.00  0.00    -0.004 A 
ATOM      6  C   UNL     1     -12.100  10.423  70.311  0.00  0.00    -0.022 A 
ATOM      7  C   UNL     1     -11.728  11.237  69.249  0.00  0.00    -0.004 A 
ATOM      8  C   UNL     1     -13.726  13.044  72.330  0.00  0.00    +0.003 A 
ATOM      9  C   UNL     1     -11.736  12.618  69.388  0.00  0.00    -0.000 A 
ATOM     10  C   UNL     1     -13.719  14.427  72.406  0.00  0.00    +0.037 A 
ENDROOT
BRANCH   1  12
ATOM     11  C   UNL     1     -12.379  16.325  73.917  0.00  0.00    +0.252 C 
ATOM     12  O   UNL     1     -12.217  16.283  72.503  0.00  0.00    -0.471 OA
ENDBRANCH   1  12
BRANCH   6  13
ATOM     13  C   UNL     1     -11.375   9.159  70.641  0.00  0.00    +0.034 C 
BRANCH  13  14
ATOM     14  C   UNL     1     -11.774   8.595  71.974  0.00  0.00    +0.069 C 
BRANCH  14  15
ATOM     15  C   UNL     1     -10.595   8.010  72.649  0.00  0.00    +0.151 C 
ATOM     16  O   UNL     1     -10.761   7.196  73.544  0.00  0.00    -0.296 OA
ATOM     17  C   UNL     1      -9.188   8.386  72.337  0.00  0.00    +0.072 C 
ENDBRANCH  14  15
ENDBRANCH  13  14
ENDBRANCH   6  13
TORSDOF 4
ENDMDL
MODEL 5
REMARK VINA RESULT:      -5.8      2.948      6.813
REMARK  Name = 
REMARK  4 active torsions:
REMARK  status: ('A' for Active; 'I' for Inactive)
REMARK    1  A    between atoms: O_2  and  C_3
REMARK    2  A    between atoms: C_8  and  C_9
REMARK    3  A    between atoms: C_9  and  C_10
REMARK    4  A    between atoms: C_10  and  C_11
REMARK                            x       y       z     vdW  Elec       q    Type
REMARK                         _______ _______ _______ _____ _____    ______ ____
ROOT
ATOM      1  C   UNL     1     -11.693  13.019  65.578  0.00  0.00    +0.139 A 
ATOM      2  C   UNL     1     -12.179  13.592  66.747  0.00  0.00    +0.037 A 
ATOM      3  C   UNL     1     -11.980  13.011  67.966  0.00  0.00    +0.003 A 
ATOM      4  C   UNL     1     -11.568  11.686  68.047  0.00  0.00    -0.000 A 
ATOM      5  C   UNL     1     -11.610  11.005  69.259  0.00  0.00    -0.004 A 
ATOM      6  C   UNL     1     -12.078  11.625  70.413  0.00  0.00    -0.022 A 
ATOM      7  C   UNL     1     -12.051  13.014  70.385  0.00  0.00    -0.004 A 
ATOM      8  C   UNL     1     -11.051  11.090  66.914  0.00  0.00    +0.003 A 
ATOM      9  C   UNL     1     -12.019  13.690  69.172  0.00  0.00    -0.000 A 
ATOM     10  C   UNL     1     -11.013  11.819  65.736  0.00  0.00    +0.037 A 
ENDROOT
BRANCH   1  12
ATOM     11  C   UNL     1     -12.472  12.169  63.432  0.00  0.00    +0.252 C 
ATOM     12  O   UNL     1     -12.373  13.233  64.373  0.00  0.00    -0.471 OA
ENDBRANCH   1  12
BRANCH   6  13
ATOM     13  C   UNL     1     -12.932  10.862  71.372  0.00  0.00    +0.034 C 
BRANCH  13  14
ATOM     14  C   UNL     1     -12.700   9.381  71.299  0.00  0.00    +0.069 C 
BRANCH  14  15
ATOM     15  C   UNL     1     -13.829   8.661  71.929  0.00  0.00    +0.151 C 
ATOM     16  O   UNL     1     -14.386   9.152  72.898  0.00  0.00    -0.296 OA
ATOM     17  C   UNL     1     -14.317   7.326  71.481  0.00  0.00    +0.072 C 
ENDBRANCH  14  15
ENDBRANCH  13  14
ENDBRANCH   6  13
TORSDOF 4
ENDMDL
MODEL 6
REMARK VINA RESULT:      -5.8      5.847      7.179
REMARK  Name = 
REMARK  4 active torsions:
REMARK  status: ('A' for Active; 'I' for Inactive)
REMARK    1  A    between atoms: O_2  and  C_3
REMARK    2  A    between atoms: C_8  and  C_9
REMARK    3  A    between atoms: C_9  and  C_10
REMARK    4  A    between atoms: C_10  and  C_11
REMARK                            x       y       z     vdW  Elec       q    Type
REMARK                         _______ _______ _______ _____ _____    ______ ____
ROOT
ATOM      1  C   UNL     1      -6.216  21.024  67.777  0.00  0.00    +0.139 A 
ATOM      2  C   UNL     1      -7.383  20.864  67.037  0.00  0.00    +0.037 A 
ATOM      3  C   UNL     1      -8.341  19.961  67.397  0.00  0.00    +0.003 A 
ATOM      4  C   UNL     1      -8.047  18.963  68.319  0.00  0.00    -0.000 A 
ATOM      5  C   UNL     1      -8.914  17.892  68.502  0.00  0.00    -0.004 A 
ATOM      6  C   UNL     1     -10.086  17.785  67.760  0.00  0.00    -0.022 A 
ATOM      7  C   UNL     1     -10.543  18.975  67.208  0.00  0.00    -0.004 A 
ATOM      8  C   UNL     1      -6.912  19.100  69.094  0.00  0.00    +0.003 A 
ATOM      9  C   UNL     1      -9.671  20.038  67.018  0.00  0.00    -0.000 A 
ATOM     10  C   UNL     1      -6.092  20.197  68.885  0.00  0.00    +0.037 A 
ENDROOT
BRANCH   1  12
ATOM     11  C   UNL     1      -4.463  20.596  66.141  0.00  0.00    +0.252 C 
ATOM     12  O   UNL     1      -5.045  21.437  67.131  0.00  0.00    -0.471 OA
ENDBRANCH   1  12
BRANCH   6  13
ATOM     13  C   UNL     1     -10.525  16.449  67.254  0.00  0.00    +0.034 C 
BRANCH  13  14
ATOM     14  C   UNL     1      -9.915  16.107  65.925  0.00  0.00    +0.069 C 
BRANCH  14  15
ATOM     15  C   UNL     1     -10.980  15.910  64.916  0.00  0.00    +0.151 C 
ATOM     16  O   UNL     1     -11.319  16.848  64.213  0.00  0.00    -0.296 OA
ATOM     17  C   UNL     1     -11.715  14.628  64.725  0.00  0.00    +0.072 C 
ENDBRANCH  14  15
ENDBRANCH  13  14
ENDBRANCH   6  13
TORSDOF 4
ENDMDL
MODEL 7
REMARK VINA RESULT:      -5.7      3.398      4.486
REMARK  Name = 
REMARK  4 active torsions:
REMARK  status: ('A' for Active; 'I' for Inactive)
REMARK    1  A    between atoms: O_2  and  C_3
REMARK    2  A    between atoms: C_8  and  C_9
REMARK    3  A    between atoms: C_9  and  C_10
REMARK    4  A    between atoms: C_10  and  C_11
REMARK                            x       y       z     vdW  Elec       q    Type
REMARK                         _______ _______ _______ _____ _____    ______ ____
ROOT
ATOM      1  C   UNL     1     -12.392   8.636  71.638  0.00  0.00    +0.139 A 
ATOM      2  C   UNL     1     -11.529   8.782  70.557  0.00  0.00    +0.037 A 
ATOM      3  C   UNL     1     -11.280  10.002  70.000  0.00  0.00    +0.003 A 
ATOM      4  C   UNL     1     -12.110  11.080  70.283  0.00  0.00    -0.000 A 
ATOM      5  C   UNL     1     -12.031  12.250  69.535  0.00  0.00    -0.004 A 
ATOM      6  C   UNL     1     -11.134  12.364  68.478  0.00  0.00    -0.022 A 
ATOM      7  C   UNL     1     -10.064  11.479  68.518  0.00  0.00    -0.004 A 
ATOM      8  C   UNL     1     -12.960  10.986  71.367  0.00  0.00    +0.003 A 
ATOM      9  C   UNL     1     -10.151  10.308  69.259  0.00  0.00    -0.000 A 
ATOM     10  C   UNL     1     -12.986   9.805  72.093  0.00  0.00    +0.037 A 
ENDROOT
BRANCH   1  12
ATOM     11  C   UNL     1     -14.512   7.437  71.643  0.00  0.00    +0.252 C 
ATOM     12  O   UNL     1     -13.097   7.437  71.798  0.00  0.00    -0.471 OA
ENDBRANCH   1  12
BRANCH   6  13
ATOM     13  C   UNL     1     -11.550  13.058  67.222  0.00  0.00    +0.034 C 
BRANCH  13  14
ATOM     14  C   UNL     1     -11.471  12.166  66.017  0.00  0.00    +0.069 C 
BRANCH  14  15
ATOM     15  C   UNL     1     -12.372  12.668  64.956  0.00  0.00    +0.151 C 
ATOM     16  O   UNL     1     -13.125  13.597  65.201  0.00  0.00    -0.296 OA
ATOM     17  C   UNL     1     -12.461  12.076  63.592  0.00  0.00    +0.072 C 
ENDBRANCH  14  15
ENDBRANCH  13  14
ENDBRANCH   6  13
TORSDOF 4
ENDMDL
MODEL 8
REMARK VINA RESULT:      -5.7      1.518      7.013
REMARK  Name = 
REMARK  4 active torsions:
REMARK  status: ('A' for Active; 'I' for Inactive)
REMARK    1  A    between atoms: O_2  and  C_3
REMARK    2  A    between atoms: C_8  and  C_9
REMARK    3  A    between atoms: C_9  and  C_10
REMARK    4  A    between atoms: C_10  and  C_11
REMARK                            x       y       z     vdW  Elec       q    Type
REMARK                         _______ _______ _______ _____ _____    ______ ____
ROOT
ATOM      1  C   UNL     1     -10.739  11.579  63.781  0.00  0.00    +0.139 A 
ATOM      2  C   UNL     1     -10.486  11.325  65.125  0.00  0.00    +0.037 A 
ATOM      3  C   UNL     1     -11.139  11.999  66.116  0.00  0.00    +0.003 A 
ATOM      4  C   UNL     1     -11.837  13.165  65.823  0.00  0.00    -0.000 A 
ATOM      5  C   UNL     1     -12.284  13.997  66.844  0.00  0.00    -0.004 A 
ATOM      6  C   UNL     1     -12.034  13.692  68.177  0.00  0.00    -0.022 A 
ATOM      7  C   UNL     1     -11.748  12.357  68.431  0.00  0.00    -0.004 A 
ATOM      8  C   UNL     1     -12.133  13.438  64.502  0.00  0.00    +0.003 A 
ATOM      9  C   UNL     1     -11.292  11.532  67.410  0.00  0.00    -0.000 A 
ATOM     10  C   UNL     1     -11.681  12.566  63.525  0.00  0.00    +0.037 A 
ENDROOT
BRANCH   1  12
ATOM     11  C   UNL     1      -9.348  10.057  62.485  0.00  0.00    +0.252 C 
ATOM     12  O   UNL     1      -9.719  11.384  62.842  0.00  0.00    -0.471 OA
ENDBRANCH   1  12
BRANCH   6  13
ATOM     13  C   UNL     1     -11.670  14.781  69.133  0.00  0.00    +0.034 C 
BRANCH  13  14
ATOM     14  C   UNL     1     -11.660  14.318  70.561  0.00  0.00    +0.069 C 
BRANCH  14  15
ATOM     15  C   UNL     1     -12.963  14.614  71.198  0.00  0.00    +0.151 C 
ATOM     16  O   UNL     1     -13.475  15.709  71.030  0.00  0.00    -0.296 OA
ATOM     17  C   UNL     1     -13.688  13.663  72.086  0.00  0.00    +0.072 C 
ENDBRANCH  14  15
ENDBRANCH  13  14
ENDBRANCH   6  13
TORSDOF 4
ENDMDL
MODEL 9
REMARK VINA RESULT:      -5.6      1.648      2.602
REMARK  Name = 
REMARK  4 active torsions:
REMARK  status: ('A' for Active; 'I' for Inactive)
REMARK    1  A    between atoms: O_2  and  C_3
REMARK    2  A    between atoms: C_8  and  C_9
REMARK    3  A    between atoms: C_9  and  C_10
REMARK    4  A    between atoms: C_10  and  C_11
REMARK                            x       y       z     vdW  Elec       q    Type
REMARK                         _______ _______ _______ _____ _____    ______ ____
ROOT
ATOM      1  C   UNL     1     -12.733  15.181  73.160  0.00  0.00    +0.139 A 
ATOM      2  C   UNL     1     -11.939  15.845  72.232  0.00  0.00    +0.037 A 
ATOM      3  C   UNL     1     -11.803  15.392  70.952  0.00  0.00    +0.003 A 
ATOM      4  C   UNL     1     -12.192  14.098  70.625  0.00  0.00    -0.000 A 
ATOM      5  C   UNL     1     -11.826  13.536  69.407  0.00  0.00    -0.004 A 
ATOM      6  C   UNL     1     -11.053  14.246  68.494  0.00  0.00    -0.022 A 
ATOM      7  C   UNL     1     -11.072  15.625  68.657  0.00  0.00    -0.004 A 
ATOM      8  C   UNL     1     -13.005  13.416  71.509  0.00  0.00    +0.003 A 
ATOM      9  C   UNL     1     -11.427  16.181  69.878  0.00  0.00    -0.000 A 
ATOM     10  C   UNL     1     -13.357  14.029  72.700  0.00  0.00    +0.037 A 
ENDROOT
BRANCH   1  12
ATOM     11  C   UNL     1     -12.393  16.521  75.166  0.00  0.00    +0.252 C 
ATOM     12  O   UNL     1     -12.407  15.252  74.520  0.00  0.00    -0.471 OA
ENDBRANCH   1  12
BRANCH   6  13
ATOM     13  C   UNL     1      -9.977  13.546  67.729  0.00  0.00    +0.034 C 
BRANCH  13  14
ATOM     14  C   UNL     1     -10.356  13.295  66.298  0.00  0.00    +0.069 C 
BRANCH  14  15
ATOM     15  C   UNL     1     -11.259  12.126  66.212  0.00  0.00    +0.151 C 
ATOM     16  O   UNL     1     -12.319  12.231  65.616  0.00  0.00    -0.296 OA
ATOM     17  C   UNL     1     -10.979  10.811  66.855  0.00  0.00    +0.072 C 
ENDBRANCH  14  15
ENDBRANCH  13  14
ENDBRANCH   6  13
TORSDOF 4
ENDMDL
