MODEL 1
REMARK VINA RESULT:      -6.7      0.000      0.000
REMARK  Name = 
REMARK  5 active torsions:
REMARK  status: ('A' for Active; 'I' for Inactive)
REMARK    1  A    between atoms: C_2  and  C_3
REMARK    2  A    between atoms: C_4  and  C_5
REMARK    3  A    between atoms: C_14  and  C_15
REMARK    4  A    between atoms: C_16  and  C_17
REMARK    5  A    between atoms: C_19  and  C_20
REMARK                            x       y       z     vdW  Elec       q    Type
REMARK                         _______ _______ _______ _____ _____    ______ ____
ROOT
ATOM      1  C   UNL     1     -10.215   9.760  69.847  0.00  0.00    +0.031 C 
ATOM      2  C   UNL     1     -11.207  10.794  69.460  0.00  0.00    -0.022 C 
ATOM      3  C   UNL     1     -12.076  11.322  70.324  0.00  0.00    -0.004 C 
ENDROOT
BRANCH   3   4
ATOM      4  C   UNL     1     -12.437  12.722  70.060  0.00  0.00    -0.001 C 
ATOM      5  C   UNL     1     -12.139  13.584  71.021  0.00  0.00    -0.004 C 
BRANCH   5   6
ATOM      6  C   UNL     1     -11.690  14.945  70.773  0.00  0.00    -0.015 C 
ATOM      7  C   UNL     1     -12.400  15.927  71.330  0.00  0.00    +0.082 C 
ATOM      8  C   UNL     1     -10.482  15.256  69.945  0.00  0.00    +0.031 C 
BRANCH   7   9
ATOM      9  C   UNL     1     -13.054  15.727  72.629  0.00  0.00    +0.388 C 
ATOM     10  O   UNL     1     -14.402  16.090  72.701  0.00  0.00    -0.241 OA
ATOM     11  O   UNL     1     -12.311  15.705  73.655  0.00  0.00    -0.241 OA
ENDBRANCH   7   9
ENDBRANCH   5   6
ENDBRANCH   3   4
BRANCH   2  12
ATOM     12  C   UNL     1     -11.612  10.889  68.051  0.00  0.00    -0.005 C 
ATOM     13  C   UNL     1     -10.795  11.601  67.277  0.00  0.00    -0.005 C 
BRANCH  13  14
ATOM     14  C   UNL     1     -11.067  11.910  65.890  0.00  0.00    -0.031 C 
ATOM     15  C   UNL     1     -11.403  13.324  65.533  0.00  0.00    +0.018 C 
ATOM     16  C   UNL     1     -12.010  13.990  66.739  0.00  0.00    +0.004 C 
ATOM     17  C   UNL     1     -10.181  14.084  65.077  0.00  0.00    +0.004 C 
ATOM     18  C   UNL     1     -12.393  13.325  64.375  0.00  0.00    +0.004 C 
ATOM     19  C   UNL     1     -12.343  12.007  63.634  0.00  0.00    +0.005 C 
ATOM     20  C   UNL     1     -10.918  11.479  63.542  0.00  0.00    +0.022 C 
ATOM     21  C   UNL     1     -10.438  11.221  64.936  0.00  0.00    -0.048 C 
ATOM     22  C   UNL     1      -9.598  10.040  65.261  0.00  0.00    +0.026 C 
ENDBRANCH  13  14
ENDBRANCH   2  12
TORSDOF 5
ENDMDL
MODEL 2
REMARK VINA RESULT:      -6.4      3.526      6.992
REMARK  Name = 
REMARK  5 active torsions:
REMARK  status: ('A' for Active; 'I' for Inactive)
REMARK    1  A    between atoms: C_2  and  C_3
REMARK    2  A    between atoms: C_4  and  C_5
REMARK    3  A    between atoms: C_14  and  C_15
REMARK    4  A    between atoms: C_16  and  C_17
REMARK    5  A    between atoms: C_19  and  C_20
REMARK                            x       y       z     vdW  Elec       q    Type
REMARK                         _______ _______ _______ _____ _____    ______ ____
ROOT
ATOM      1  C   UNL     1      -8.757  10.641  68.897  0.00  0.00    +0.031 C 
ATOM      2  C   UNL     1     -10.115  10.990  68.411  0.00  0.00    -0.022 C 
ATOM      3  C   UNL     1     -10.388  12.137  67.788  0.00  0.00    -0.004 C 
ENDROOT
BRANCH   3   4
ATOM      4  C   UNL     1     -11.452  12.054  66.778  0.00  0.00    -0.001 C 
ATOM      5  C   UNL     1     -11.823  13.205  66.236  0.00  0.00    -0.004 C 
BRANCH   5   6
ATOM      6  C   UNL     1     -12.211  13.353  64.842  0.00  0.00    -0.015 C 
ATOM      7  C   UNL     1     -12.164  14.583  64.329  0.00  0.00    +0.082 C 
ATOM      8  C   UNL     1     -12.637  12.193  63.998  0.00  0.00    +0.031 C 
BRANCH   7   9
ATOM      9  C   UNL     1     -11.149  15.540  64.784  0.00  0.00    +0.388 C 
ATOM     10  O   UNL     1     -11.284  16.850  64.315  0.00  0.00    -0.241 OA
ATOM     11  O   UNL     1     -10.028  15.070  65.144  0.00  0.00    -0.241 OA
ENDBRANCH   7   9
ENDBRANCH   5   6
ENDBRANCH   3   4
BRANCH   2  12
ATOM     12  C   UNL     1     -11.275  10.347  69.043  0.00  0.00    -0.005 C 
ATOM     13  C   UNL     1     -11.053   9.861  70.263  0.00  0.00    -0.005 C 
BRANCH  13  14
ATOM     14  C   UNL     1     -12.026   9.096  71.012  0.00  0.00    -0.031 C 
ATOM     15  C   UNL     1     -11.627   7.743  71.513  0.00  0.00    +0.018 C 
ATOM     16  C   UNL     1     -10.554   7.196  70.611  0.00  0.00    +0.004 C 
ATOM     17  C   UNL     1     -11.130   7.805  72.938  0.00  0.00    +0.004 C 
ATOM     18  C   UNL     1     -12.845   6.826  71.501  0.00  0.00    +0.004 C 
ATOM     19  C   UNL     1     -14.120   7.641  71.488  0.00  0.00    +0.005 C 
ATOM     20  C   UNL     1     -13.992   8.883  72.359  0.00  0.00    +0.022 C 
ATOM     21  C   UNL     1     -12.914   9.740  71.772  0.00  0.00    -0.048 C 
ATOM     22  C   UNL     1     -13.034  11.220  71.735  0.00  0.00    +0.026 C 
ENDBRANCH  13  14
ENDBRANCH   2  12
TORSDOF 5
ENDMDL
MODEL 3
REMARK VINA RESULT:      -6.3      3.474      6.783
REMARK  Name = 
REMARK  5 active torsions:
REMARK  status: ('A' for Active; 'I' for Inactive)
REMARK    1  A    between atoms: C_2  and  C_3
REMARK    2  A    between atoms: C_4  and  C_5
REMARK    3  A    between atoms: C_14  and  C_15
REMARK    4  A    between atoms: C_16  and  C_17
REMARK    5  A    between atoms: C_19  and  C_20
REMARK                            x       y       z     vdW  Elec       q    Type
REMARK                         _______ _______ _______ _____ _____    ______ ____
ROOT
ATOM      1  C   UNL     1     -12.749  13.153  71.587  0.00  0.00    +0.031 C 
ATOM      2  C   UNL     1     -12.215  12.664  70.293  0.00  0.00    -0.022 C 
ATOM      3  C   UNL     1     -12.194  13.412  69.188  0.00  0.00    -0.004 C 
ENDROOT
BRANCH   3   4
ATOM      4  C   UNL     1     -11.070  13.144  68.281  0.00  0.00    -0.001 C 
ATOM      5  C   UNL     1     -11.335  13.254  66.988  0.00  0.00    -0.004 C 
BRANCH   5   6
ATOM      6  C   UNL     1     -10.391  13.774  66.011  0.00  0.00    -0.015 C 
ATOM      7  C   UNL     1     -10.727  13.662  64.726  0.00  0.00    +0.082 C 
ATOM      8  C   UNL     1      -9.098  14.419  66.405  0.00  0.00    +0.031 C 
BRANCH   7   9
ATOM      9  C   UNL     1     -12.135  13.743  64.316  0.00  0.00    +0.388 C 
ATOM     10  O   UNL     1     -12.694  12.569  63.803  0.00  0.00    -0.241 OA
ATOM     11  O   UNL     1     -12.586  14.888  64.014  0.00  0.00    -0.241 OA
ENDBRANCH   7   9
ENDBRANCH   5   6
ENDBRANCH   3   4
BRANCH   2  12
ATOM     12  C   UNL     1     -12.178  11.215  70.049  0.00  0.00    -0.005 C 
ATOM     13  C   UNL     1     -11.921  10.470  71.124  0.00  0.00    -0.005 C 
BRANCH  13  14
ATOM     14  C   UNL     1     -11.732   9.037  71.081  0.00  0.00    -0.031 C 
ATOM     15  C   UNL     1     -10.331   8.509  71.060  0.00  0.00    +0.018 C 
ATOM     16  C   UNL     1      -9.436   9.553  70.448  0.00  0.00    +0.004 C 
ATOM     17  C   UNL     1      -9.852   8.158  72.447  0.00  0.00    +0.004 C 
ATOM     18  C   UNL     1     -10.291   7.230  70.232  0.00  0.00    +0.004 C 
ATOM     19  C   UNL     1     -11.675   6.627  70.124  0.00  0.00    +0.005 C 
ATOM     20  C   UNL     1     -12.449   6.781  71.426  0.00  0.00    +0.022 C 
ATOM     21  C   UNL     1     -12.624   8.246  71.680  0.00  0.00    -0.048 C 
ATOM     22  C   UNL     1     -13.887   8.790  72.240  0.00  0.00    +0.026 C 
ENDBRANCH  13  14
ENDBRANCH   2  12
TORSDOF 5
ENDMDL
MODEL 4
REMARK VINA RESULT:      -6.2      2.166      5.477
REMARK  Name = 
REMARK  5 active torsions:
REMARK  status: ('A' for Active; 'I' for Inactive)
REMARK    1  A    between atoms: C_2  and  C_3
REMARK    2  A    between atoms: C_4  and  C_5
REMARK    3  A    between atoms: C_14  and  C_15
REMARK    4  A    between atoms: C_16  and  C_17
REMARK    5  A    between atoms: C_19  and  C_20
REMARK                            x       y       z     vdW  Elec       q    Type
REMARK                         _______ _______ _______ _____ _____    ______ ____
ROOT
ATOM      1  C   UNL     1     -10.296  10.642  66.894  0.00  0.00    +0.031 C 
ATOM      2  C   UNL     1     -11.009  11.427  67.931  0.00  0.00    -0.022 C 
ATOM      3  C   UNL     1     -10.524  12.561  68.441  0.00  0.00    -0.004 C 
ENDROOT
BRANCH   3   4
ATOM      4  C   UNL     1     -11.542  13.546  68.835  0.00  0.00    -0.001 C 
ATOM      5  C   UNL     1     -11.313  14.186  69.971  0.00  0.00    -0.004 C 
BRANCH   5   6
ATOM      6  C   UNL     1     -11.653  15.583  70.193  0.00  0.00    -0.015 C 
ATOM      7  C   UNL     1     -12.565  15.842  71.131  0.00  0.00    +0.082 C 
ATOM      8  C   UNL     1     -11.014  16.699  69.427  0.00  0.00    +0.031 C 
BRANCH   7   9
ATOM      9  C   UNL     1     -12.667  14.992  72.323  0.00  0.00    +0.388 C 
ATOM     10  O   UNL     1     -13.940  14.494  72.617  0.00  0.00    -0.241 OA
ATOM     11  O   UNL     1     -11.784  15.143  73.220  0.00  0.00    -0.241 OA
ENDBRANCH   7   9
ENDBRANCH   5   6
ENDBRANCH   3   4
BRANCH   2  12
ATOM     12  C   UNL     1     -11.983  10.739  68.789  0.00  0.00    -0.005 C 
ATOM     13  C   UNL     1     -11.466  10.149  69.867  0.00  0.00    -0.005 C 
BRANCH  13  14
ATOM     14  C   UNL     1     -12.231   9.328  70.779  0.00  0.00    -0.031 C 
ATOM     15  C   UNL     1     -11.684   7.986  71.151  0.00  0.00    +0.018 C 
ATOM     16  C   UNL     1     -10.798   7.503  70.034  0.00  0.00    +0.004 C 
ATOM     17  C   UNL     1     -10.907   8.046  72.445  0.00  0.00    +0.004 C 
ATOM     18  C   UNL     1     -12.839   7.015  71.365  0.00  0.00    +0.004 C 
ATOM     19  C   UNL     1     -14.122   7.772  71.635  0.00  0.00    +0.005 C 
ATOM     20  C   UNL     1     -13.867   9.003  72.493  0.00  0.00    +0.022 C 
ATOM     21  C   UNL     1     -12.969   9.918  71.721  0.00  0.00    -0.048 C 
ATOM     22  C   UNL     1     -13.154  11.391  71.748  0.00  0.00    +0.026 C 
ENDBRANCH  13  14
ENDBRANCH   2  12
TORSDOF 5
ENDMDL
MODEL 5
REMARK VINA RESULT:      -6.1      3.477      5.941
REMARK  Name = 
REMARK  5 active torsions:
REMARK  status: ('A' for Active; 'I' for Inactive)
REMARK    1  A    between atoms: C_2  and  C_3
REMARK    2  A    between atoms: C_4  and  C_5
REMARK    3  A    between atoms: C_14  and  C_15
REMARK    4  A    between atoms: C_16  and  C_17
REMARK    5  A    between atoms: C_19  and  C_20
REMARK                            x       y       z     vdW  Elec       q    Type
REMARK                         _______ _______ _______ _____ _____    ______ ____
ROOT
ATOM      1  C   UNL     1     -10.824  15.170  65.057  0.00  0.00    +0.031 C 
ATOM      2  C   UNL     1     -10.925  15.153  66.537  0.00  0.00    -0.022 C 
ATOM      3  C   UNL     1     -11.833  14.429  67.193  0.00  0.00    -0.004 C 
ENDROOT
BRANCH   3   4
ATOM      4  C   UNL     1     -11.397  13.932  68.506  0.00  0.00    -0.001 C 
ATOM      5  C   UNL     1     -12.199  14.209  69.522  0.00  0.00    -0.004 C 
BRANCH   5   6
ATOM      6  C   UNL     1     -12.435  13.304  70.636  0.00  0.00    -0.015 C 
ATOM      7  C   UNL     1     -12.916  13.839  71.758  0.00  0.00    +0.082 C 
ATOM      8  C   UNL     1     -12.169  11.834  70.548  0.00  0.00    +0.031 C 
BRANCH   7   9
ATOM      9  C   UNL     1     -13.828  14.988  71.703  0.00  0.00    +0.388 C 
ATOM     10  O   UNL     1     -13.351  16.179  72.260  0.00  0.00    -0.241 OA
ATOM     11  O   UNL     1     -15.068  14.741  71.611  0.00  0.00    -0.241 OA
ENDBRANCH   7   9
ENDBRANCH   5   6
ENDBRANCH   3   4
BRANCH   2  12
ATOM     12  C   UNL     1     -10.398  16.299  67.291  0.00  0.00    -0.005 C 
ATOM     13  C   UNL     1      -9.391  16.945  66.703  0.00  0.00    -0.005 C 
BRANCH  13  14
ATOM     14  C   UNL     1      -8.659  18.027  67.324  0.00  0.00    -0.031 C 
ATOM     15  C   UNL     1      -9.270  19.393  67.311  0.00  0.00    +0.018 C 
ATOM     16  C   UNL     1     -10.190  19.494  66.123  0.00  0.00    +0.004 C 
ATOM     17  C   UNL     1     -10.030  19.671  68.585  0.00  0.00    +0.004 C 
ATOM     18  C   UNL     1      -8.162  20.435  67.210  0.00  0.00    +0.004 C 
ATOM     19  C   UNL     1      -6.840  19.847  67.654  0.00  0.00    +0.005 C 
ATOM     20  C   UNL     1      -7.025  18.903  68.835  0.00  0.00    +0.022 C 
ATOM     21  C   UNL     1      -7.883  17.766  68.378  0.00  0.00    -0.048 C 
ATOM     22  C   UNL     1      -7.625  16.372  68.820  0.00  0.00    +0.026 C 
ENDBRANCH  13  14
ENDBRANCH   2  12
TORSDOF 5
ENDMDL
MODEL 6
REMARK VINA RESULT:      -6.0      3.526      5.827
REMARK  Name = 
REMARK  5 active torsions:
REMARK  status: ('A' for Active; 'I' for Inactive)
REMARK    1  A    between atoms: C_2  and  C_3
REMARK    2  A    between atoms: C_4  and  C_5
REMARK    3  A    between atoms: C_14  and  C_15
REMARK    4  A    between atoms: C_16  and  C_17
REMARK    5  A    between atoms: C_19  and  C_20
REMARK                            x       y       z     vdW  Elec       q    Type
REMARK                         _______ _______ _______ _____ _____    ______ ____
ROOT
ATOM      1  C   UNL     1     -10.510  14.366  65.436  0.00  0.00    +0.031 C 
ATOM      2  C   UNL     1     -10.700  14.621  66.886  0.00  0.00    -0.022 C 
ATOM      3  C   UNL     1     -11.733  14.135  67.576  0.00  0.00    -0.004 C 
ENDROOT
BRANCH   3   4
ATOM      4  C   UNL     1     -11.445  13.827  68.984  0.00  0.00    -0.001 C 
ATOM      5  C   UNL     1     -12.424  14.078  69.840  0.00  0.00    -0.004 C 
BRANCH   5   6
ATOM      6  C   UNL     1     -12.711  13.253  71.003  0.00  0.00    -0.015 C 
ATOM      7  C   UNL     1     -13.243  13.864  72.062  0.00  0.00    +0.082 C 
ATOM      8  C   UNL     1     -12.441  11.781  71.032  0.00  0.00    +0.031 C 
BRANCH   7   9
ATOM      9  C   UNL     1     -14.151  15.004  71.884  0.00  0.00    +0.388 C 
ATOM     10  O   UNL     1     -13.909  16.116  72.695  0.00  0.00    -0.241 OA
ATOM     11  O   UNL     1     -15.300  14.761  71.406  0.00  0.00    -0.241 OA
ENDBRANCH   7   9
ENDBRANCH   5   6
ENDBRANCH   3   4
BRANCH   2  12
ATOM     12  C   UNL     1     -10.074  15.810  67.479  0.00  0.00    -0.005 C 
ATOM     13  C   UNL     1      -9.392  16.572  66.625  0.00  0.00    -0.005 C 
BRANCH  13  14
ATOM     14  C   UNL     1      -8.611  17.723  67.023  0.00  0.00    -0.031 C 
ATOM     15  C   UNL     1      -7.118  17.609  66.992  0.00  0.00    +0.018 C 
ATOM     16  C   UNL     1      -6.745  16.162  67.174  0.00  0.00    +0.004 C 
ATOM     17  C   UNL     1      -6.551  18.136  65.696  0.00  0.00    +0.004 C 
ATOM     18  C   UNL     1      -6.529  18.451  68.117  0.00  0.00    +0.004 C 
ATOM     19  C   UNL     1      -7.524  19.497  68.572  0.00  0.00    +0.005 C 
ATOM     20  C   UNL     1      -8.305  20.066  67.394  0.00  0.00    +0.022 C 
ATOM     21  C   UNL     1      -9.088  18.946  66.785  0.00  0.00    -0.048 C 
ATOM     22  C   UNL     1     -10.469  19.151  66.279  0.00  0.00    +0.026 C 
ENDBRANCH  13  14
ENDBRANCH   2  12
TORSDOF 5
ENDMDL
MODEL 7
REMARK VINA RESULT:      -6.0      1.610      3.780
REMARK  Name = 
REMARK  5 active torsions:
REMARK  status: ('A' for Active; 'I' for Inactive)
REMARK    1  A    between atoms: C_2  and  C_3
REMARK    2  A    between atoms: C_4  and  C_5
REMARK    3  A    between atoms: C_14  and  C_15
REMARK    4  A    between atoms: C_16  and  C_17
REMARK    5  A    between atoms: C_19  and  C_20
REMARK                            x       y       z     vdW  Elec       q    Type
REMARK                         _______ _______ _______ _____ _____    ______ ____
ROOT
ATOM      1  C   UNL     1     -12.655  13.862  65.762  0.00  0.00    +0.031 C 
ATOM      2  C   UNL     1     -11.851  13.492  66.954  0.00  0.00    -0.022 C 
ATOM      3  C   UNL     1     -11.826  14.228  68.066  0.00  0.00    -0.004 C 
ENDROOT
BRANCH   3   4
ATOM      4  C   UNL     1     -11.647  13.464  69.309  0.00  0.00    -0.001 C 
ATOM      5  C   UNL     1     -12.298  13.924  70.366  0.00  0.00    -0.004 C 
BRANCH   5   6
ATOM      6  C   UNL     1     -12.893  13.070  71.383  0.00  0.00    -0.015 C 
ATOM      7  C   UNL     1     -13.528  13.677  72.386  0.00  0.00    +0.082 C 
ATOM      8  C   UNL     1     -12.820  11.577  71.323  0.00  0.00    +0.031 C 
BRANCH   7   9
ATOM      9  C   UNL     1     -14.238  14.942  72.161  0.00  0.00    +0.388 C 
ATOM     10  O   UNL     1     -15.362  14.877  71.332  0.00  0.00    -0.241 OA
ATOM     11  O   UNL     1     -13.577  16.013  72.310  0.00  0.00    -0.241 OA
ENDBRANCH   7   9
ENDBRANCH   5   6
ENDBRANCH   3   4
BRANCH   2  12
ATOM     12  C   UNL     1     -10.684  12.619  66.772  0.00  0.00    -0.005 C 
ATOM     13  C   UNL     1     -10.969  11.349  66.490  0.00  0.00    -0.005 C 
BRANCH  13  14
ATOM     14  C   UNL     1      -9.973  10.306  66.383  0.00  0.00    -0.031 C 
ATOM     15  C   UNL     1      -9.926   9.260  67.453  0.00  0.00    +0.018 C 
ATOM     16  C   UNL     1     -10.478   9.851  68.723  0.00  0.00    +0.004 C 
ATOM     17  C   UNL     1     -10.715   8.034  67.062  0.00  0.00    +0.004 C 
ATOM     18  C   UNL     1      -8.482   8.820  67.660  0.00  0.00    +0.004 C 
ATOM     19  C   UNL     1      -7.646   9.161  66.446  0.00  0.00    +0.005 C 
ATOM     20  C   UNL     1      -8.430   8.949  65.158  0.00  0.00    +0.022 C 
ATOM     21  C   UNL     1      -9.593   9.892  65.173  0.00  0.00    -0.048 C 
ATOM     22  C   UNL     1     -10.041  10.590  63.941  0.00  0.00    +0.026 C 
ENDBRANCH  13  14
ENDBRANCH   2  12
TORSDOF 5
ENDMDL
MODEL 8
REMARK VINA RESULT:      -6.0      1.400      3.637
REMARK  Name = 
REMARK  5 active torsions:
REMARK  status: ('A' for Active; 'I' for Inactive)
REMARK    1  A    between atoms: C_2  and  C_3
REMARK    2  A    between atoms: C_4  and  C_5
REMARK    3  A    between atoms: C_14  and  C_15
REMARK    4  A    between atoms: C_16  and  C_17
REMARK    5  A    between atoms: C_19  and  C_20
REMARK                            x       y       z     vdW  Elec       q    Type
REMARK                         _______ _______ _______ _____ _____    ______ ____
ROOT
ATOM      1  C   UNL     1     -10.788  17.672  67.207  0.00  0.00    +0.031 C 
ATOM      2  C   UNL     1     -10.584  16.393  67.933  0.00  0.00    -0.022 C 
ATOM      3  C   UNL     1      -9.685  16.249  68.907  0.00  0.00    -0.004 C 
ENDROOT
BRANCH   3   4
ATOM      4  C   UNL     1     -10.061  15.294  69.959  0.00  0.00    -0.001 C 
ATOM      5  C   UNL     1     -11.329  15.328  70.341  0.00  0.00    -0.004 C 
BRANCH   5   6
ATOM      6  C   UNL     1     -12.091  14.147  70.716  0.00  0.00    -0.015 C 
ATOM      7  C   UNL     1     -12.849  14.239  71.809  0.00  0.00    +0.082 C 
ATOM      8  C   UNL     1     -12.052  12.879  69.923  0.00  0.00    +0.031 C 
BRANCH   7   9
ATOM      9  C   UNL     1     -13.481  15.514  72.170  0.00  0.00    +0.388 C 
ATOM     10  O   UNL     1     -13.057  16.094  73.369  0.00  0.00    -0.241 OA
ATOM     11  O   UNL     1     -14.625  15.754  71.678  0.00  0.00    -0.241 OA
ENDBRANCH   7   9
ENDBRANCH   5   6
ENDBRANCH   3   4
BRANCH   2  12
ATOM     12  C   UNL     1     -10.977  15.140  67.274  0.00  0.00    -0.005 C 
ATOM     13  C   UNL     1     -10.161  14.736  66.301  0.00  0.00    -0.005 C 
BRANCH  13  14
ATOM     14  C   UNL     1     -10.423  13.593  65.455  0.00  0.00    -0.031 C 
ATOM     15  C   UNL     1     -10.109  12.230  65.990  0.00  0.00    +0.018 C 
ATOM     16  C   UNL     1      -9.012  12.360  67.013  0.00  0.00    +0.004 C 
ATOM     17  C   UNL     1     -11.325  11.585  66.608  0.00  0.00    +0.004 C 
ATOM     18  C   UNL     1      -9.657  11.334  64.843  0.00  0.00    +0.004 C 
ATOM     19  C   UNL     1     -10.130  11.892  63.518  0.00  0.00    +0.005 C 
ATOM     20  C   UNL     1     -11.524  12.494  63.638  0.00  0.00    +0.022 C 
ATOM     21  C   UNL     1     -11.443  13.640  64.597  0.00  0.00    -0.048 C 
ATOM     22  C   UNL     1     -12.206  14.894  64.372  0.00  0.00    +0.026 C 
ENDBRANCH  13  14
ENDBRANCH   2  12
TORSDOF 5
ENDMDL
MODEL 9
REMARK VINA RESULT:      -5.9      3.317      6.479
REMARK  Name = 
REMARK  5 active torsions:
REMARK  status: ('A' for Active; 'I' for Inactive)
REMARK    1  A    between atoms: C_2  and  C_3
REMARK    2  A    between atoms: C_4  and  C_5
REMARK    3  A    between atoms: C_14  and  C_15
REMARK    4  A    between atoms: C_16  and  C_17
REMARK    5  A    between atoms: C_19  and  C_20
REMARK                            x       y       z     vdW  Elec       q    Type
REMARK                         _______ _______ _______ _____ _____    ______ ____
ROOT
ATOM      1  C   UNL     1      -9.803   9.317  66.139  0.00  0.00    +0.031 C 
ATOM      2  C   UNL     1     -10.094  10.312  67.200  0.00  0.00    -0.022 C 
ATOM      3  C   UNL     1      -9.192  11.198  67.629  0.00  0.00    -0.004 C 
ENDROOT
BRANCH   3   4
ATOM      4  C   UNL     1      -9.750  12.486  68.064  0.00  0.00    -0.001 C 
ATOM      5  C   UNL     1     -10.274  13.239  67.109  0.00  0.00    -0.004 C 
BRANCH   5   6
ATOM      6  C   UNL     1     -11.453  14.071  67.292  0.00  0.00    -0.015 C 
ATOM      7  C   UNL     1     -12.167  14.357  66.203  0.00  0.00    +0.082 C 
ATOM      8  C   UNL     1     -11.875  14.586  68.633  0.00  0.00    +0.031 C 
BRANCH   7   9
ATOM      9  C   UNL     1     -12.269  13.388  65.105  0.00  0.00    +0.388 C 
ATOM     10  O   UNL     1     -12.476  13.921  63.830  0.00  0.00    -0.241 OA
ATOM     11  O   UNL     1     -12.627  12.209  65.404  0.00  0.00    -0.241 OA
ENDBRANCH   7   9
ENDBRANCH   5   6
ENDBRANCH   3   4
BRANCH   2  12
ATOM     12  C   UNL     1     -11.171  10.027  68.157  0.00  0.00    -0.005 C 
ATOM     13  C   UNL     1     -10.763   9.647  69.367  0.00  0.00    -0.005 C 
BRANCH  13  14
ATOM     14  C   UNL     1     -11.658   9.214  70.418  0.00  0.00    -0.031 C 
ATOM     15  C   UNL     1     -11.333   7.948  71.147  0.00  0.00    +0.018 C 
ATOM     16  C   UNL     1     -10.523   7.065  70.235  0.00  0.00    +0.004 C 
ATOM     17  C   UNL     1     -10.570   8.223  72.420  0.00  0.00    +0.004 C 
ATOM     18  C   UNL     1     -12.630   7.250  71.541  0.00  0.00    +0.004 C 
ATOM     19  C   UNL     1     -13.780   8.234  71.544  0.00  0.00    +0.005 C 
ATOM     20  C   UNL     1     -13.343   9.593  72.074  0.00  0.00    +0.022 C 
ATOM     21  C   UNL     1     -12.303  10.131  71.141  0.00  0.00    -0.048 C 
ATOM     22  C   UNL     1     -12.254  11.572  70.783  0.00  0.00    +0.026 C 
ENDBRANCH  13  14
ENDBRANCH   2  12
TORSDOF 5
ENDMDL
