MODEL 1
REMARK VINA RESULT:      -6.0      0.000      0.000
REMARK  Name = 
REMARK  8 active torsions:
REMARK  status: ('A' for Active; 'I' for Inactive)
REMARK    1  A    between atoms: C_2  and  N_3
REMARK    2  A    between atoms: N_3  and  C_4
REMARK    3  A    between atoms: N_3  and  C_6
REMARK    4  A    between atoms: C_6  and  C_7
REMARK    5  A    between atoms: C_7  and  C_8
REMARK    6  A    between atoms: C_8  and  C_9
REMARK    7  A    between atoms: C_9  and  N_11
REMARK    8  A    between atoms: N_11  and  C_12
REMARK                            x       y       z     vdW  Elec       q    Type
REMARK                         _______ _______ _______ _____ _____    ______ ____
ROOT
ATOM      1  N   UNL     1     -10.945  15.232  69.828  0.00  0.00    -0.239 NA
ENDROOT
BRANCH   1   2
ATOM      2  C   UNL     1     -11.941  14.821  70.740  0.00  0.00    +0.068 A 
ATOM      3  C   UNL     1     -12.395  13.519  70.790  0.00  0.00    +0.033 A 
ATOM      4  C   UNL     1     -13.230  13.090  71.802  0.00  0.00    +0.083 A 
ATOM      5  C   UNL     1     -13.395  11.734  72.060  0.00  0.00    +0.031 A 
ATOM      6  C   UNL     1     -12.890  10.778  71.221  0.00  0.00    +0.059 A 
ATOM      7  C   UNL     1     -12.096  11.225  70.185  0.00  0.00    +0.012 A 
ATOM      8 CL   UNL     1     -13.239   9.067  71.451  0.00  0.00    -0.082 Cl
ATOM      9  N   UNL     1     -13.681  14.022  72.659  0.00  0.00    -0.244 NA
ATOM     10  C   UNL     1     -13.491  15.327  72.460  0.00  0.00    +0.100 A 
ATOM     11  C   UNL     1     -11.701  12.541  70.119  0.00  0.00    +0.004 A 
ATOM     12  C   UNL     1     -12.615  15.764  71.507  0.00  0.00    +0.037 A 
ENDBRANCH   1   2
BRANCH   1  13
ATOM     13  C   UNL     1     -11.511  15.732  68.423  0.00  0.00    +0.093 C 
ATOM     14  C   UNL     1     -10.581  17.112  68.488  0.00  0.00    +0.023 C 
BRANCH  13  15
ATOM     15  C   UNL     1     -10.323  14.906  67.607  0.00  0.00    +0.023 C 
BRANCH  15  16
ATOM     16  C   UNL     1     -10.944  14.283  66.433  0.00  0.00    +0.019 C 
BRANCH  16  17
ATOM     17  C   UNL     1     -12.163  13.459  66.633  0.00  0.00    +0.072 C 
BRANCH  17  18
ATOM     18  N   UNL     1     -12.047  12.327  65.712  0.00  0.00    -0.273 NA
BRANCH  18  19
ATOM     19  C   UNL     1     -10.764  11.680  65.807  0.00  0.00    +0.072 C 
ATOM     20  C   UNL     1     -10.739  10.559  66.835  0.00  0.00    +0.019 C 
ENDBRANCH  18  19
BRANCH  18  22
ATOM     21  C   UNL     1     -12.434  12.117  63.488  0.00  0.00    +0.019 C 
ATOM     22  C   UNL     1     -12.086  12.928  64.378  0.00  0.00    +0.072 C 
ENDBRANCH  18  22
ENDBRANCH  17  18
ENDBRANCH  16  17
ENDBRANCH  15  16
ENDBRANCH  13  15
ENDBRANCH   1  13
TORSDOF 8
ENDMDL
MODEL 2
REMARK VINA RESULT:      -5.8      2.256      3.900
REMARK  Name = 
REMARK  8 active torsions:
REMARK  status: ('A' for Active; 'I' for Inactive)
REMARK    1  A    between atoms: C_2  and  N_3
REMARK    2  A    between atoms: N_3  and  C_4
REMARK    3  A    between atoms: N_3  and  C_6
REMARK    4  A    between atoms: C_6  and  C_7
REMARK    5  A    between atoms: C_7  and  C_8
REMARK    6  A    between atoms: C_8  and  C_9
REMARK    7  A    between atoms: C_9  and  N_11
REMARK    8  A    between atoms: N_11  and  C_12
REMARK                            x       y       z     vdW  Elec       q    Type
REMARK                         _______ _______ _______ _____ _____    ______ ____
ROOT
ATOM      1  N   UNL     1     -12.124  12.808  68.679  0.00  0.00    -0.239 NA
ENDROOT
BRANCH   1   2
ATOM      2  C   UNL     1     -11.893  14.140  69.085  0.00  0.00    +0.068 A 
ATOM      3  C   UNL     1     -12.223  14.588  70.347  0.00  0.00    +0.033 A 
ATOM      4  C   UNL     1     -11.827  15.834  70.792  0.00  0.00    +0.083 A 
ATOM      5  C   UNL     1     -11.841  16.141  72.146  0.00  0.00    +0.031 A 
ATOM      6  C   UNL     1     -12.409  15.303  73.067  0.00  0.00    +0.059 A 
ATOM      7  C   UNL     1     -12.844  14.080  72.600  0.00  0.00    +0.012 A 
ATOM      8 CL   UNL     1     -12.578  15.764  74.758  0.00  0.00    -0.082 Cl
ATOM      9  N   UNL     1     -11.218  16.635  69.900  0.00  0.00    -0.244 NA
ATOM     10  C   UNL     1     -11.149  16.337  68.603  0.00  0.00    +0.100 A 
ATOM     11  C   UNL     1     -12.556  13.674  71.317  0.00  0.00    +0.004 A 
ATOM     12  C   UNL     1     -11.472  15.086  68.158  0.00  0.00    +0.037 A 
ENDBRANCH   1   2
BRANCH   1  13
ATOM     13  C   UNL     1     -10.828  11.877  68.721  0.00  0.00    +0.093 C 
ATOM     14  C   UNL     1     -11.699  10.619  69.378  0.00  0.00    +0.023 C 
BRANCH  13  15
ATOM     15  C   UNL     1     -11.118  11.340  67.176  0.00  0.00    +0.023 C 
BRANCH  15  16
ATOM     16  C   UNL     1      -9.974  11.740  66.348  0.00  0.00    +0.019 C 
BRANCH  16  17
ATOM     17  C   UNL     1     -10.224  12.117  64.934  0.00  0.00    +0.072 C 
BRANCH  17  18
ATOM     18  N   UNL     1     -11.200  13.209  64.969  0.00  0.00    -0.273 NA
BRANCH  18  19
ATOM     19  C   UNL     1     -12.013  13.248  63.781  0.00  0.00    +0.072 C 
ATOM     20  C   UNL     1     -12.555  11.883  63.388  0.00  0.00    +0.019 C 
ENDBRANCH  18  19
BRANCH  18  22
ATOM     21  C   UNL     1     -11.067  15.452  64.667  0.00  0.00    +0.019 C 
ATOM     22  C   UNL     1     -10.393  14.429  64.934  0.00  0.00    +0.072 C 
ENDBRANCH  18  22
ENDBRANCH  17  18
ENDBRANCH  16  17
ENDBRANCH  15  16
ENDBRANCH  13  15
ENDBRANCH   1  13
TORSDOF 8
ENDMDL
MODEL 3
REMARK VINA RESULT:      -5.7      2.855      5.275
REMARK  Name = 
REMARK  8 active torsions:
REMARK  status: ('A' for Active; 'I' for Inactive)
REMARK    1  A    between atoms: C_2  and  N_3
REMARK    2  A    between atoms: N_3  and  C_4
REMARK    3  A    between atoms: N_3  and  C_6
REMARK    4  A    between atoms: C_6  and  C_7
REMARK    5  A    between atoms: C_7  and  C_8
REMARK    6  A    between atoms: C_8  and  C_9
REMARK    7  A    between atoms: C_9  and  N_11
REMARK    8  A    between atoms: N_11  and  C_12
REMARK                            x       y       z     vdW  Elec       q    Type
REMARK                         _______ _______ _______ _____ _____    ______ ____
ROOT
ATOM      1  N   UNL     1     -11.916  14.282  66.590  0.00  0.00    -0.239 NA
ENDROOT
BRANCH   1   2
ATOM      2  C   UNL     1     -11.872  13.486  67.755  0.00  0.00    +0.068 A 
ATOM      3  C   UNL     1     -11.832  14.038  69.018  0.00  0.00    +0.033 A 
ATOM      4  C   UNL     1     -11.975  13.256  70.147  0.00  0.00    +0.083 A 
ATOM      5  C   UNL     1     -12.291  13.829  71.372  0.00  0.00    +0.031 A 
ATOM      6  C   UNL     1     -12.296  15.186  71.550  0.00  0.00    +0.059 A 
ATOM      7  C   UNL     1     -12.105  15.955  70.421  0.00  0.00    +0.012 A 
ATOM      8 CL   UNL     1     -12.531  15.910  73.138  0.00  0.00    -0.082 Cl
ATOM      9  N   UNL     1     -12.026  11.925  69.965  0.00  0.00    -0.244 NA
ATOM     10  C   UNL     1     -11.775  11.355  68.786  0.00  0.00    +0.100 A 
ATOM     11  C   UNL     1     -12.088  15.379  69.171  0.00  0.00    +0.004 A 
ATOM     12  C   UNL     1     -11.700  12.111  67.650  0.00  0.00    +0.037 A 
ENDBRANCH   1   2
BRANCH   1  13
ATOM     13  C   UNL     1     -10.809  13.913  65.502  0.00  0.00    +0.093 C 
ATOM     14  C   UNL     1     -11.970  13.706  64.326  0.00  0.00    +0.023 C 
BRANCH  13  15
ATOM     15  C   UNL     1     -10.614  15.513  65.102  0.00  0.00    +0.023 C 
BRANCH  15  16
ATOM     16  C   UNL     1      -9.692  16.104  66.080  0.00  0.00    +0.019 C 
BRANCH  16  17
ATOM     17  C   UNL     1     -10.076  17.383  66.727  0.00  0.00    +0.072 C 
BRANCH  17  18
ATOM     18  N   UNL     1      -9.323  18.432  66.036  0.00  0.00    -0.273 NA
BRANCH  18  19
ATOM     19  C   UNL     1      -8.051  18.689  66.660  0.00  0.00    +0.072 C 
ATOM     20  C   UNL     1      -6.901  18.735  65.666  0.00  0.00    +0.019 C 
ENDBRANCH  18  19
BRANCH  18  22
ATOM     21  C   UNL     1      -9.973  20.137  67.382  0.00  0.00    +0.019 C 
ATOM     22  C   UNL     1     -10.112  19.648  66.236  0.00  0.00    +0.072 C 
ENDBRANCH  18  22
ENDBRANCH  17  18
ENDBRANCH  16  17
ENDBRANCH  15  16
ENDBRANCH  13  15
ENDBRANCH   1  13
TORSDOF 8
ENDMDL
MODEL 4
REMARK VINA RESULT:      -5.5      2.620      6.441
REMARK  Name = 
REMARK  8 active torsions:
REMARK  status: ('A' for Active; 'I' for Inactive)
REMARK    1  A    between atoms: C_2  and  N_3
REMARK    2  A    between atoms: N_3  and  C_4
REMARK    3  A    between atoms: N_3  and  C_6
REMARK    4  A    between atoms: C_6  and  C_7
REMARK    5  A    between atoms: C_7  and  C_8
REMARK    6  A    between atoms: C_8  and  C_9
REMARK    7  A    between atoms: C_9  and  N_11
REMARK    8  A    between atoms: N_11  and  C_12
REMARK                            x       y       z     vdW  Elec       q    Type
REMARK                         _______ _______ _______ _____ _____    ______ ____
ROOT
ATOM      1  N   UNL     1     -11.687  14.103  67.227  0.00  0.00    -0.239 NA
ENDROOT
BRANCH   1   2
ATOM      2  C   UNL     1     -11.444  12.712  67.197  0.00  0.00    +0.068 A 
ATOM      3  C   UNL     1     -11.140  12.047  66.027  0.00  0.00    +0.033 A 
ATOM      4  C   UNL     1     -10.726  10.730  66.039  0.00  0.00    +0.083 A 
ATOM      5  C   UNL     1     -10.086  10.177  64.937  0.00  0.00    +0.031 A 
ATOM      6  C   UNL     1     -10.002  10.845  63.746  0.00  0.00    +0.059 A 
ATOM      7  C   UNL     1     -10.463  12.146  63.736  0.00  0.00    +0.012 A 
ATOM      8 CL   UNL     1      -9.342  10.084  62.301  0.00  0.00    -0.082 Cl
ATOM      9  N   UNL     1     -10.756  10.091  67.221  0.00  0.00    -0.244 NA
ATOM     10  C   UNL     1     -11.321  10.622  68.306  0.00  0.00    +0.100 A 
ATOM     11  C   UNL     1     -10.819  12.775  64.907  0.00  0.00    +0.004 A 
ATOM     12  C   UNL     1     -11.671  11.942  68.332  0.00  0.00    +0.037 A 
ENDBRANCH   1   2
BRANCH   1  13
ATOM     13  C   UNL     1     -10.525  14.954  67.913  0.00  0.00    +0.093 C 
ATOM     14  C   UNL     1     -10.438  15.976  66.602  0.00  0.00    +0.023 C 
BRANCH  13  15
ATOM     15  C   UNL     1     -11.637  15.932  68.668  0.00  0.00    +0.023 C 
BRANCH  15  16
ATOM     16  C   UNL     1     -11.581  15.638  70.104  0.00  0.00    +0.019 C 
BRANCH  16  17
ATOM     17  C   UNL     1     -12.518  14.626  70.654  0.00  0.00    +0.072 C 
BRANCH  17  18
ATOM     18  N   UNL     1     -13.167  15.254  71.807  0.00  0.00    -0.273 NA
BRANCH  18  19
ATOM     19  C   UNL     1     -12.246  16.042  72.585  0.00  0.00    +0.072 C 
ATOM     20  C   UNL     1     -12.476  15.915  74.083  0.00  0.00    +0.019 C 
ENDBRANCH  18  19
BRANCH  18  22
ATOM     21  C   UNL     1     -13.495  13.027  72.087  0.00  0.00    +0.019 C 
ATOM     22  C   UNL     1     -13.554  14.137  72.669  0.00  0.00    +0.072 C 
ENDBRANCH  18  22
ENDBRANCH  17  18
ENDBRANCH  16  17
ENDBRANCH  15  16
ENDBRANCH  13  15
ENDBRANCH   1  13
TORSDOF 8
ENDMDL
MODEL 5
REMARK VINA RESULT:      -5.5      4.538      8.227
REMARK  Name = 
REMARK  8 active torsions:
REMARK  status: ('A' for Active; 'I' for Inactive)
REMARK    1  A    between atoms: C_2  and  N_3
REMARK    2  A    between atoms: N_3  and  C_4
REMARK    3  A    between atoms: N_3  and  C_6
REMARK    4  A    between atoms: C_6  and  C_7
REMARK    5  A    between atoms: C_7  and  C_8
REMARK    6  A    between atoms: C_8  and  C_9
REMARK    7  A    between atoms: C_9  and  N_11
REMARK    8  A    between atoms: N_11  and  C_12
REMARK                            x       y       z     vdW  Elec       q    Type
REMARK                         _______ _______ _______ _____ _____    ______ ____
ROOT
ATOM      1  N   UNL     1     -10.107  17.408  69.087  0.00  0.00    -0.239 NA
ENDROOT
BRANCH   1   2
ATOM      2  C   UNL     1      -9.817  18.369  68.095  0.00  0.00    +0.068 A 
ATOM      3  C   UNL     1      -8.663  19.124  68.122  0.00  0.00    +0.033 A 
ATOM      4  C   UNL     1      -8.304  19.924  67.056  0.00  0.00    +0.083 A 
ATOM      5  C   UNL     1      -7.003  20.393  66.926  0.00  0.00    +0.031 A 
ATOM      6  C   UNL     1      -6.081  20.237  67.925  0.00  0.00    +0.059 A 
ATOM      7  C   UNL     1      -6.469  19.475  69.008  0.00  0.00    +0.012 A 
ATOM      8 CL   UNL     1      -4.484  20.974  67.835  0.00  0.00    -0.082 Cl
ATOM      9  N   UNL     1      -9.188  20.031  66.048  0.00  0.00    -0.244 NA
ATOM     10  C   UNL     1     -10.427  19.545  66.130  0.00  0.00    +0.100 A 
ATOM     11  C   UNL     1      -7.654  18.774  68.986  0.00  0.00    +0.004 A 
ATOM     12  C   UNL     1     -10.775  18.697  67.143  0.00  0.00    +0.037 A 
ENDBRANCH   1   2
BRANCH   1  13
ATOM     13  C   UNL     1     -10.886  16.124  68.546  0.00  0.00    +0.093 C 
ATOM     14  C   UNL     1      -9.477  15.461  67.958  0.00  0.00    +0.023 C 
BRANCH  13  15
ATOM     15  C   UNL     1     -10.703  15.351  70.006  0.00  0.00    +0.023 C 
BRANCH  15  16
ATOM     16  C   UNL     1     -11.618  15.988  70.960  0.00  0.00    +0.019 C 
BRANCH  16  17
ATOM     17  C   UNL     1     -13.030  15.529  70.997  0.00  0.00    +0.072 C 
BRANCH  17  18
ATOM     18  N   UNL     1     -13.401  15.462  72.411  0.00  0.00    -0.273 NA
BRANCH  18  19
ATOM     19  C   UNL     1     -12.540  16.269  73.237  0.00  0.00    +0.072 C 
ATOM     20  C   UNL     1     -12.417  15.742  74.659  0.00  0.00    +0.019 C 
ENDBRANCH  18  19
BRANCH  18  22
ATOM     21  C   UNL     1     -13.794  13.246  72.132  0.00  0.00    +0.019 C 
ATOM     22  C   UNL     1     -13.134  14.077  72.800  0.00  0.00    +0.072 C 
ENDBRANCH  18  22
ENDBRANCH  17  18
ENDBRANCH  16  17
ENDBRANCH  15  16
ENDBRANCH  13  15
ENDBRANCH   1  13
TORSDOF 8
ENDMDL
MODEL 6
REMARK VINA RESULT:      -5.4      2.377      4.255
REMARK  Name = 
REMARK  8 active torsions:
REMARK  status: ('A' for Active; 'I' for Inactive)
REMARK    1  A    between atoms: C_2  and  N_3
REMARK    2  A    between atoms: N_3  and  C_4
REMARK    3  A    between atoms: N_3  and  C_6
REMARK    4  A    between atoms: C_6  and  C_7
REMARK    5  A    between atoms: C_7  and  C_8
REMARK    6  A    between atoms: C_8  and  C_9
REMARK    7  A    between atoms: C_9  and  N_11
REMARK    8  A    between atoms: N_11  and  C_12
REMARK                            x       y       z     vdW  Elec       q    Type
REMARK                         _______ _______ _______ _____ _____    ______ ____
ROOT
ATOM      1  N   UNL     1     -11.914  11.991  68.189  0.00  0.00    -0.239 NA
ENDROOT
BRANCH   1   2
ATOM      2  C   UNL     1     -11.759  13.390  68.300  0.00  0.00    +0.068 A 
ATOM      3  C   UNL     1     -12.114  14.078  69.441  0.00  0.00    +0.033 A 
ATOM      4  C   UNL     1     -11.788  15.410  69.605  0.00  0.00    +0.083 A 
ATOM      5  C   UNL     1     -11.819  15.998  70.863  0.00  0.00    +0.031 A 
ATOM      6  C   UNL     1     -12.338  15.346  71.948  0.00  0.00    +0.059 A 
ATOM      7  C   UNL     1     -12.704  14.029  71.758  0.00  0.00    +0.012 A 
ATOM      8 CL   UNL     1     -12.532  16.147  73.504  0.00  0.00    -0.082 Cl
ATOM      9  N   UNL     1     -11.226  16.035  68.556  0.00  0.00    -0.244 NA
ATOM     10  C   UNL     1     -11.140  15.471  67.350  0.00  0.00    +0.100 A 
ATOM     11  C   UNL     1     -12.393  13.375  70.588  0.00  0.00    +0.004 A 
ATOM     12  C   UNL     1     -11.393  14.138  67.187  0.00  0.00    +0.037 A 
ENDBRANCH   1   2
BRANCH   1  13
ATOM     13  C   UNL     1     -10.541  11.177  68.206  0.00  0.00    +0.093 C 
ATOM     14  C   UNL     1     -11.120  10.139  69.373  0.00  0.00    +0.023 C 
BRANCH  13  15
ATOM     15  C   UNL     1     -11.072  10.183  66.984  0.00  0.00    +0.023 C 
BRANCH  15  16
ATOM     16  C   UNL     1     -10.021  10.144  65.960  0.00  0.00    +0.019 C 
BRANCH  16  17
ATOM     17  C   UNL     1      -9.776  11.366  65.154  0.00  0.00    +0.072 C 
BRANCH  17  18
ATOM     18  N   UNL     1     -10.400  11.127  63.851  0.00  0.00    -0.273 NA
BRANCH  18  19
ATOM     19  C   UNL     1      -9.431  11.081  62.786  0.00  0.00    +0.072 C 
ATOM     20  C   UNL     1      -9.125   9.665  62.323  0.00  0.00    +0.019 C 
ENDBRANCH  18  19
BRANCH  18  22
ATOM     21  C   UNL     1     -12.430  12.075  63.505  0.00  0.00    +0.019 C 
ATOM     22  C   UNL     1     -11.205  12.323  63.600  0.00  0.00    +0.072 C 
ENDBRANCH  18  22
ENDBRANCH  17  18
ENDBRANCH  16  17
ENDBRANCH  15  16
ENDBRANCH  13  15
ENDBRANCH   1  13
TORSDOF 8
ENDMDL
MODEL 7
REMARK VINA RESULT:      -5.4      2.589      5.028
REMARK  Name = 
REMARK  8 active torsions:
REMARK  status: ('A' for Active; 'I' for Inactive)
REMARK    1  A    between atoms: C_2  and  N_3
REMARK    2  A    between atoms: N_3  and  C_4
REMARK    3  A    between atoms: N_3  and  C_6
REMARK    4  A    between atoms: C_6  and  C_7
REMARK    5  A    between atoms: C_7  and  C_8
REMARK    6  A    between atoms: C_8  and  C_9
REMARK    7  A    between atoms: C_9  and  N_11
REMARK    8  A    between atoms: N_11  and  C_12
REMARK                            x       y       z     vdW  Elec       q    Type
REMARK                         _______ _______ _______ _____ _____    ______ ____
ROOT
ATOM      1  N   UNL     1     -11.826  12.620  68.073  0.00  0.00    -0.239 NA
ENDROOT
BRANCH   1   2
ATOM      2  C   UNL     1     -11.715  13.973  68.458  0.00  0.00    +0.068 A 
ATOM      3  C   UNL     1     -12.095  14.412  69.709  0.00  0.00    +0.033 A 
ATOM      4  C   UNL     1     -11.812  15.693  70.137  0.00  0.00    +0.083 A 
ATOM      5  C   UNL     1     -11.866  16.020  71.486  0.00  0.00    +0.031 A 
ATOM      6  C   UNL     1     -12.369  15.152  72.415  0.00  0.00    +0.059 A 
ATOM      7  C   UNL     1     -12.694  13.888  71.965  0.00  0.00    +0.012 A 
ATOM      8 CL   UNL     1     -12.595  15.623  74.097  0.00  0.00    -0.082 Cl
ATOM      9  N   UNL     1     -11.265  16.530  69.237  0.00  0.00    -0.244 NA
ATOM     10  C   UNL     1     -11.156  16.218  67.945  0.00  0.00    +0.100 A 
ATOM     11  C   UNL     1     -12.358  13.488  70.692  0.00  0.00    +0.004 A 
ATOM     12  C   UNL     1     -11.367  14.937  67.519  0.00  0.00    +0.037 A 
ENDBRANCH   1   2
BRANCH   1  13
ATOM     13  C   UNL     1     -10.733  12.150  67.009  0.00  0.00    +0.093 C 
ATOM     14  C   UNL     1      -9.506  12.345  68.118  0.00  0.00    +0.023 C 
BRANCH  13  15
ATOM     15  C   UNL     1     -10.942  10.559  67.440  0.00  0.00    +0.023 C 
BRANCH  15  16
ATOM     16  C   UNL     1     -10.421  10.400  68.803  0.00  0.00    +0.019 C 
BRANCH  16  17
ATOM     17  C   UNL     1     -10.780   9.171  69.555  0.00  0.00    +0.072 C 
BRANCH  17  18
ATOM     18  N   UNL     1     -11.153   9.610  70.901  0.00  0.00    -0.273 NA
BRANCH  18  19
ATOM     19  C   UNL     1     -10.646   8.728  71.921  0.00  0.00    +0.072 C 
ATOM     20  C   UNL     1      -9.139   8.536  71.844  0.00  0.00    +0.019 C 
ENDBRANCH  18  19
BRANCH  18  22
ATOM     21  C   UNL     1     -13.125  10.063  71.925  0.00  0.00    +0.019 C 
ATOM     22  C   UNL     1     -12.608   9.470  70.948  0.00  0.00    +0.072 C 
ENDBRANCH  18  22
ENDBRANCH  17  18
ENDBRANCH  16  17
ENDBRANCH  15  16
ENDBRANCH  13  15
ENDBRANCH   1  13
TORSDOF 8
ENDMDL
MODEL 8
REMARK VINA RESULT:      -5.4      3.261      7.270
REMARK  Name = 
REMARK  8 active torsions:
REMARK  status: ('A' for Active; 'I' for Inactive)
REMARK    1  A    between atoms: C_2  and  N_3
REMARK    2  A    between atoms: N_3  and  C_4
REMARK    3  A    between atoms: N_3  and  C_6
REMARK    4  A    between atoms: C_6  and  C_7
REMARK    5  A    between atoms: C_7  and  C_8
REMARK    6  A    between atoms: C_8  and  C_9
REMARK    7  A    between atoms: C_9  and  N_11
REMARK    8  A    between atoms: N_11  and  C_12
REMARK                            x       y       z     vdW  Elec       q    Type
REMARK                         _______ _______ _______ _____ _____    ______ ____
ROOT
ATOM      1  N   UNL     1     -10.386  13.769  67.832  0.00  0.00    -0.239 NA
ENDROOT
BRANCH   1   2
ATOM      2  C   UNL     1     -10.596  14.711  66.801  0.00  0.00    +0.068 A 
ATOM      3  C   UNL     1     -10.586  16.069  67.038  0.00  0.00    +0.033 A 
ATOM      4  C   UNL     1     -10.608  16.978  66.000  0.00  0.00    +0.083 A 
ATOM      5  C   UNL     1     -10.242  18.302  66.207  0.00  0.00    +0.031 A 
ATOM      6  C   UNL     1     -10.022  18.798  67.463  0.00  0.00    +0.059 A 
ATOM      7  C   UNL     1     -10.050  17.886  68.498  0.00  0.00    +0.012 A 
ATOM      8 CL   UNL     1      -9.723  20.511  67.743  0.00  0.00    -0.082 Cl
ATOM      9  N   UNL     1     -10.768  16.485  64.759  0.00  0.00    -0.244 NA
ATOM     10  C   UNL     1     -11.071  15.206  64.533  0.00  0.00    +0.100 A 
ATOM     11  C   UNL     1     -10.120  16.536  68.244  0.00  0.00    +0.004 A 
ATOM     12  C   UNL     1     -10.986  14.283  65.537  0.00  0.00    +0.037 A 
ENDBRANCH   1   2
BRANCH   1  13
ATOM     13  C   UNL     1     -11.614  12.778  68.072  0.00  0.00    +0.093 C 
ATOM     14  C   UNL     1     -10.880  12.124  69.416  0.00  0.00    +0.023 C 
BRANCH  13  15
ATOM     15  C   UNL     1     -12.401  13.916  68.991  0.00  0.00    +0.023 C 
BRANCH  15  16
ATOM     16  C   UNL     1     -11.937  13.765  70.375  0.00  0.00    +0.019 C 
BRANCH  16  17
ATOM     17  C   UNL     1     -12.069  14.924  71.293  0.00  0.00    +0.072 C 
BRANCH  17  18
ATOM     18  N   UNL     1     -12.812  14.438  72.458  0.00  0.00    -0.273 NA
BRANCH  18  19
ATOM     19  C   UNL     1     -14.132  13.979  72.107  0.00  0.00    +0.072 C 
ATOM     20  C   UNL     1     -15.017  15.084  71.552  0.00  0.00    +0.019 C 
ENDBRANCH  18  19
BRANCH  18  22
ATOM     21  C   UNL     1     -12.430  15.554  74.395  0.00  0.00    +0.019 C 
ATOM     22  C   UNL     1     -13.017  15.625  73.289  0.00  0.00    +0.072 C 
ENDBRANCH  18  22
ENDBRANCH  17  18
ENDBRANCH  16  17
ENDBRANCH  15  16
ENDBRANCH  13  15
ENDBRANCH   1  13
TORSDOF 8
ENDMDL
MODEL 9
REMARK VINA RESULT:      -5.3      2.534      3.952
REMARK  Name = 
REMARK  8 active torsions:
REMARK  status: ('A' for Active; 'I' for Inactive)
REMARK    1  A    between atoms: C_2  and  N_3
REMARK    2  A    between atoms: N_3  and  C_4
REMARK    3  A    between atoms: N_3  and  C_6
REMARK    4  A    between atoms: C_6  and  C_7
REMARK    5  A    between atoms: C_7  and  C_8
REMARK    6  A    between atoms: C_8  and  C_9
REMARK    7  A    between atoms: C_9  and  N_11
REMARK    8  A    between atoms: N_11  and  C_12
REMARK                            x       y       z     vdW  Elec       q    Type
REMARK                         _______ _______ _______ _____ _____    ______ ____
ROOT
ATOM      1  N   UNL     1     -11.547  15.001  69.374  0.00  0.00    -0.239 NA
ENDROOT
BRANCH   1   2
ATOM      2  C   UNL     1     -12.369  14.486  70.400  0.00  0.00    +0.068 A 
ATOM      3  C   UNL     1     -12.594  13.134  70.549  0.00  0.00    +0.033 A 
ATOM      4  C   UNL     1     -13.246  12.633  71.658  0.00  0.00    +0.083 A 
ATOM      5  C   UNL     1     -13.159  11.286  71.985  0.00  0.00    +0.031 A 
ATOM      6  C   UNL     1     -12.585  10.377  71.138  0.00  0.00    +0.059 A 
ATOM      7  C   UNL     1     -11.978  10.887  70.008  0.00  0.00    +0.012 A 
ATOM      8 CL   UNL     1     -12.622   8.649  71.471  0.00  0.00    -0.082 Cl
ATOM      9  N   UNL     1     -13.761  13.528  72.519  0.00  0.00    -0.244 NA
ATOM     10  C   UNL     1     -13.810  14.833  72.249  0.00  0.00    +0.100 A 
ATOM     11  C   UNL     1     -11.815  12.244  69.848  0.00  0.00    +0.004 A 
ATOM     12  C   UNL     1     -13.113  15.351  71.194  0.00  0.00    +0.037 A 
ENDBRANCH   1   2
BRANCH   1  13
ATOM     13  C   UNL     1     -10.127  15.528  69.877  0.00  0.00    +0.093 C 
ATOM     14  C   UNL     1      -9.344  14.724  68.646  0.00  0.00    +0.023 C 
BRANCH  13  15
ATOM     15  C   UNL     1     -10.270  16.904  68.957  0.00  0.00    +0.023 C 
BRANCH  15  16
ATOM     16  C   UNL     1     -10.702  16.496  67.615  0.00  0.00    +0.019 C 
BRANCH  16  17
ATOM     17  C   UNL     1     -10.170  17.240  66.446  0.00  0.00    +0.072 C 
BRANCH  17  18
ATOM     18  N   UNL     1      -8.958  17.918  66.911  0.00  0.00    -0.273 NA
BRANCH  18  19
ATOM     19  C   UNL     1      -8.975  19.327  66.610  0.00  0.00    +0.072 C 
ATOM     20  C   UNL     1     -10.294  19.790  66.012  0.00  0.00    +0.019 C 
ENDBRANCH  18  19
BRANCH  18  22
ATOM     21  C   UNL     1      -6.844  17.113  66.757  0.00  0.00    +0.019 C 
ATOM     22  C   UNL     1      -7.882  17.354  66.096  0.00  0.00    +0.072 C 
ENDBRANCH  18  22
ENDBRANCH  17  18
ENDBRANCH  16  17
ENDBRANCH  15  16
ENDBRANCH  13  15
ENDBRANCH   1  13
TORSDOF 8
ENDMDL
