MODEL 1
REMARK VINA RESULT:      -6.5      0.000      0.000
REMARK  Name = 
REMARK  1 active torsions:
REMARK  status: ('A' for Active; 'I' for Inactive)
REMARK    1  A    between atoms: O_2  and  C_3
REMARK                            x       y       z     vdW  Elec       q    Type
REMARK                         _______ _______ _______ _____ _____    ______ ____
ROOT
ATOM      1  C   UNL     1     -12.437  14.388  70.242  0.00  0.00    +0.172 A 
ATOM      2  C   UNL     1     -11.792  15.021  69.183  0.00  0.00    +0.169 A 
ATOM      3  O   UNL     1     -11.687  16.314  68.829  0.00  0.00    -0.469 OA
ATOM      4  C   UNL     1     -10.912  16.413  67.496  0.00  0.00    +0.228 C 
ATOM      5  C   UNL     1     -11.119  14.851  67.078  0.00  0.00    +0.094 C 
ATOM      6  C   UNL     1     -10.054  14.426  66.279  0.00  0.00    +0.148 C 
ATOM      7  C   UNL     1     -10.219  12.851  65.884  0.00  0.00    +0.090 C 
ATOM      8  N   UNL     1     -11.335  13.138  64.812  0.00  0.00    -0.270 NA
ATOM      9  C   UNL     1     -12.170  14.156  65.097  0.00  0.00    +0.073 C 
ATOM     10  C   UNL     1     -11.898  11.812  64.690  0.00  0.00    +0.090 C 
ATOM     11  C   UNL     1     -11.320  12.354  66.988  0.00  0.00    +0.045 C 
ATOM     12  C   UNL     1     -10.955  12.880  68.321  0.00  0.00    -0.021 A 
ATOM     13  C   UNL     1     -11.572  12.272  69.415  0.00  0.00    -0.001 A 
ATOM     14  O   UNL     1      -9.883  15.137  65.115  0.00  0.00    -0.224 OA
ATOM     15  C   UNL     1      -8.656  14.334  66.880  0.00  0.00    +0.040 C 
ATOM     16  C   UNL     1      -8.372  15.739  67.307  0.00  0.00    +0.071 C 
ATOM     17  C   UNL     1     -12.437  14.699  66.434  0.00  0.00    +0.028 C 
ATOM     18  C   UNL     1      -9.488  16.135  68.235  0.00  0.00    +0.191 C 
ATOM     19  O   UNL     1      -9.236  17.228  68.754  0.00  0.00    -0.292 OA
ATOM     20  C   UNL     1     -10.961  14.270  68.421  0.00  0.00    +0.017 A 
ATOM     21  C   UNL     1     -12.267  13.010  70.376  0.00  0.00    +0.040 A 
ENDROOT
BRANCH   1  23
ATOM     22  C   UNL     1     -13.753  15.106  71.415  0.00  0.00    +0.253 C 
ATOM     23  O   UNL     1     -13.558  15.053  70.759  0.00  0.00    -0.468 OA
ENDBRANCH   1  23
TORSDOF 1
ENDMDL
MODEL 2
REMARK VINA RESULT:      -6.5      1.549      2.112
REMARK  Name = 
REMARK  1 active torsions:
REMARK  status: ('A' for Active; 'I' for Inactive)
REMARK    1  A    between atoms: O_2  and  C_3
REMARK                            x       y       z     vdW  Elec       q    Type
REMARK                         _______ _______ _______ _____ _____    ______ ____
ROOT
ATOM      1  C   UNL     1     -11.518  11.399  69.524  0.00  0.00    +0.172 A 
ATOM      2  C   UNL     1     -11.372  12.680  69.000  0.00  0.00    +0.169 A 
ATOM      3  O   UNL     1     -11.701  13.895  69.472  0.00  0.00    -0.469 OA
ATOM      4  C   UNL     1     -11.373  14.961  68.403  0.00  0.00    +0.228 C 
ATOM      5  C   UNL     1     -11.282  13.912  67.159  0.00  0.00    +0.094 C 
ATOM      6  C   UNL     1     -10.406  14.400  66.185  0.00  0.00    +0.148 C 
ATOM      7  C   UNL     1     -10.266  13.343  64.949  0.00  0.00    +0.090 C 
ATOM      8  N   UNL     1     -11.668  13.721  64.343  0.00  0.00    -0.270 NA
ATOM      9  C   UNL     1     -12.624  14.043  65.237  0.00  0.00    +0.073 C 
ATOM     10  C   UNL     1     -11.886  12.564  63.503  0.00  0.00    +0.090 C 
ATOM     11  C   UNL     1     -10.857  11.975  65.625  0.00  0.00    +0.045 C 
ATOM     12  C   UNL     1     -10.287  11.806  66.979  0.00  0.00    -0.021 A 
ATOM     13  C   UNL     1     -10.403  10.536  67.544  0.00  0.00    -0.001 A 
ATOM     14  O   UNL     1     -10.748  15.623  65.659  0.00  0.00    -0.224 OA
ATOM     15  C   UNL     1      -8.921  14.524  66.509  0.00  0.00    +0.040 C 
ATOM     16  C   UNL     1      -8.898  15.477  67.661  0.00  0.00    +0.071 C 
ATOM     17  C   UNL     1     -12.642  13.653  66.651  0.00  0.00    +0.028 C 
ATOM     18  C   UNL     1      -9.779  14.880  68.725  0.00  0.00    +0.191 C 
ATOM     19  O   UNL     1      -9.682  15.534  69.768  0.00  0.00    -0.292 OA
ATOM     20  C   UNL     1     -10.618  12.814  67.881  0.00  0.00    +0.017 A 
ATOM     21  C   UNL     1     -10.972  10.336  68.804  0.00  0.00    +0.040 A 
ENDROOT
BRANCH   1  23
ATOM     22  C   UNL     1     -12.614  10.809  70.964  0.00  0.00    +0.253 C 
ATOM     23  O   UNL     1     -12.585  11.223  70.417  0.00  0.00    -0.468 OA
ENDBRANCH   1  23
TORSDOF 1
ENDMDL
MODEL 3
REMARK VINA RESULT:      -6.5      2.409      4.695
REMARK  Name = 
REMARK  1 active torsions:
REMARK  status: ('A' for Active; 'I' for Inactive)
REMARK    1  A    between atoms: O_2  and  C_3
REMARK                            x       y       z     vdW  Elec       q    Type
REMARK                         _______ _______ _______ _____ _____    ______ ____
ROOT
ATOM      1  C   UNL     1     -10.937  10.162  67.806  0.00  0.00    +0.172 A 
ATOM      2  C   UNL     1     -10.741  11.057  66.757  0.00  0.00    +0.169 A 
ATOM      3  O   UNL     1     -10.239  10.906  65.519  0.00  0.00    -0.469 OA
ATOM      4  C   UNL     1     -10.187  12.284  64.822  0.00  0.00    +0.228 C 
ATOM      5  C   UNL     1     -10.317  13.157  66.192  0.00  0.00    +0.094 C 
ATOM      6  C   UNL     1     -10.928  14.385  65.920  0.00  0.00    +0.148 C 
ATOM      7  C   UNL     1     -11.107  15.259  67.287  0.00  0.00    +0.090 C 
ATOM      8  N   UNL     1      -9.586  15.659  67.343  0.00  0.00    -0.270 NA
ATOM      9  C   UNL     1      -8.720  14.728  66.897  0.00  0.00    +0.073 C 
ATOM     10  C   UNL     1      -9.495  16.062  68.728  0.00  0.00    +0.090 C 
ATOM     11  C   UNL     1     -10.911  14.108  68.434  0.00  0.00    +0.045 C 
ATOM     12  C   UNL     1     -11.688  12.906  68.065  0.00  0.00    -0.021 A 
ATOM     13  C   UNL     1     -11.916  11.982  69.086  0.00  0.00    -0.001 A 
ATOM     14  O   UNL     1     -10.271  15.167  65.001  0.00  0.00    -0.224 OA
ATOM     15  C   UNL     1     -12.385  14.412  65.474  0.00  0.00    +0.040 C 
ATOM     16  C   UNL     1     -12.373  13.619  64.206  0.00  0.00    +0.071 C 
ATOM     17  C   UNL     1      -8.981  13.287  66.804  0.00  0.00    +0.028 C 
ATOM     18  C   UNL     1     -11.793  12.274  64.552  0.00  0.00    +0.191 C 
ATOM     19  O   UNL     1     -11.899  11.509  63.588  0.00  0.00    -0.292 OA
ATOM     20  C   UNL     1     -11.286  12.291  66.882  0.00  0.00    +0.017 A 
ATOM     21  C   UNL     1     -11.584  10.631  68.949  0.00  0.00    +0.040 A 
ENDROOT
BRANCH   1  23
ATOM     22  C   UNL     1     -10.182   8.441  68.106  0.00  0.00    +0.253 C 
ATOM     23  O   UNL     1     -10.066   9.064  67.842  0.00  0.00    -0.468 OA
ENDBRANCH   1  23
TORSDOF 1
ENDMDL
MODEL 4
REMARK VINA RESULT:      -6.2      4.271      6.531
REMARK  Name = 
REMARK  1 active torsions:
REMARK  status: ('A' for Active; 'I' for Inactive)
REMARK    1  A    between atoms: O_2  and  C_3
REMARK                            x       y       z     vdW  Elec       q    Type
REMARK                         _______ _______ _______ _____ _____    ______ ____
ROOT
ATOM      1  C   UNL     1      -5.422  19.294  70.358  0.00  0.00    +0.172 A 
ATOM      2  C   UNL     1      -6.103  19.664  69.201  0.00  0.00    +0.169 A 
ATOM      3  O   UNL     1      -6.308  20.855  68.613  0.00  0.00    -0.469 OA
ATOM      4  C   UNL     1      -7.220  20.662  67.381  0.00  0.00    +0.228 C 
ATOM      5  C   UNL     1      -7.779  19.198  67.829  0.00  0.00    +0.094 C 
ATOM      6  C   UNL     1      -8.121  18.451  66.698  0.00  0.00    +0.148 C 
ATOM      7  C   UNL     1      -8.643  16.964  67.122  0.00  0.00    +0.090 C 
ATOM      8  N   UNL     1     -10.048  17.489  67.599  0.00  0.00    -0.270 NA
ATOM      9  C   UNL     1     -10.052  18.713  68.163  0.00  0.00    +0.073 C 
ATOM     10  C   UNL     1     -10.461  16.367  68.411  0.00  0.00    +0.090 C 
ATOM     11  C   UNL     1      -8.092  16.854  68.659  0.00  0.00    +0.045 C 
ATOM     12  C   UNL     1      -6.694  17.331  68.718  0.00  0.00    -0.021 A 
ATOM     13  C   UNL     1      -5.970  16.979  69.857  0.00  0.00    -0.001 A 
ATOM     14  O   UNL     1      -9.078  19.022  65.894  0.00  0.00    -0.224 OA
ATOM     15  C   UNL     1      -7.025  18.009  65.734  0.00  0.00    +0.040 C 
ATOM     16  C   UNL     1      -6.437  19.301  65.265  0.00  0.00    +0.071 C 
ATOM     17  C   UNL     1      -8.898  19.382  68.773  0.00  0.00    +0.028 C 
ATOM     18  C   UNL     1      -5.999  20.042  66.499  0.00  0.00    +0.191 C 
ATOM     19  O   UNL     1      -5.358  21.049  66.181  0.00  0.00    -0.292 OA
ATOM     20  C   UNL     1      -6.520  18.671  68.379  0.00  0.00    +0.017 A 
ATOM     21  C   UNL     1      -5.316  17.932  70.642  0.00  0.00    +0.040 A 
ENDROOT
BRANCH   1  23
ATOM     22  C   UNL     1      -4.821  20.408  71.779  0.00  0.00    +0.253 C 
ATOM     23  O   UNL     1      -5.348  20.271  71.361  0.00  0.00    -0.468 OA
ENDBRANCH   1  23
TORSDOF 1
ENDMDL
MODEL 5
REMARK VINA RESULT:      -6.1      2.095      3.950
REMARK  Name = 
REMARK  1 active torsions:
REMARK  status: ('A' for Active; 'I' for Inactive)
REMARK    1  A    between atoms: O_2  and  C_3
REMARK                            x       y       z     vdW  Elec       q    Type
REMARK                         _______ _______ _______ _____ _____    ______ ____
ROOT
ATOM      1  C   UNL     1     -12.038  12.292  69.841  0.00  0.00    +0.172 A 
ATOM      2  C   UNL     1     -11.505  12.529  68.577  0.00  0.00    +0.169 A 
ATOM      3  O   UNL     1     -11.199  11.710  67.555  0.00  0.00    -0.469 OA
ATOM      4  C   UNL     1     -10.549  12.535  66.422  0.00  0.00    +0.228 C 
ATOM      5  C   UNL     1     -10.183  13.821  67.354  0.00  0.00    +0.094 C 
ATOM      6  C   UNL     1     -10.166  14.984  66.579  0.00  0.00    +0.148 C 
ATOM      7  C   UNL     1      -9.844  16.291  67.502  0.00  0.00    +0.090 C 
ATOM      8  N   UNL     1      -8.311  15.953  67.613  0.00  0.00    -0.270 NA
ATOM      9  C   UNL     1      -8.003  14.641  67.652  0.00  0.00    +0.073 C 
ATOM     10  C   UNL     1      -7.968  16.765  68.758  0.00  0.00    +0.090 C 
ATOM     11  C   UNL     1     -10.144  15.709  69.002  0.00  0.00    +0.045 C 
ATOM     12  C   UNL     1     -11.410  14.946  68.992  0.00  0.00    -0.021 A 
ATOM     13  C   UNL     1     -11.987  14.690  70.236  0.00  0.00    -0.001 A 
ATOM     14  O   UNL     1      -9.272  14.972  65.536  0.00  0.00    -0.224 OA
ATOM     15  C   UNL     1     -11.465  15.491  65.963  0.00  0.00    +0.040 C 
ATOM     16  C   UNL     1     -11.892  14.362  65.081  0.00  0.00    +0.071 C 
ATOM     17  C   UNL     1      -8.909  13.559  68.051  0.00  0.00    +0.028 C 
ATOM     18  C   UNL     1     -11.987  13.146  65.962  0.00  0.00    +0.191 C 
ATOM     19  O   UNL     1     -12.489  12.208  65.333  0.00  0.00    -0.292 OA
ATOM     20  C   UNL     1     -11.405  13.819  68.174  0.00  0.00    +0.017 A 
ATOM     21  C   UNL     1     -12.329  13.397  70.641  0.00  0.00    +0.040 A 
ENDROOT
BRANCH   1  23
ATOM     22  C   UNL     1     -12.202  10.628  70.750  0.00  0.00    +0.253 C 
ATOM     23  O   UNL     1     -11.777  11.027  70.386  0.00  0.00    -0.468 OA
ENDBRANCH   1  23
TORSDOF 1
ENDMDL
MODEL 6
REMARK VINA RESULT:      -6.0      4.699      7.324
REMARK  Name = 
REMARK  1 active torsions:
REMARK  status: ('A' for Active; 'I' for Inactive)
REMARK    1  A    between atoms: O_2  and  C_3
REMARK                            x       y       z     vdW  Elec       q    Type
REMARK                         _______ _______ _______ _____ _____    ______ ____
ROOT
ATOM      1  C   UNL     1      -9.534  17.765  66.864  0.00  0.00    +0.172 A 
ATOM      2  C   UNL     1      -8.205  18.064  66.571  0.00  0.00    +0.169 A 
ATOM      3  O   UNL     1      -7.352  17.585  65.649  0.00  0.00    -0.469 OA
ATOM      4  C   UNL     1      -5.967  18.237  65.854  0.00  0.00    +0.228 C 
ATOM      5  C   UNL     1      -6.256  18.744  67.376  0.00  0.00    +0.094 C 
ATOM      6  C   UNL     1      -5.500  19.887  67.650  0.00  0.00    +0.148 C 
ATOM      7  C   UNL     1      -5.807  20.437  69.156  0.00  0.00    +0.090 C 
ATOM      8  N   UNL     1      -4.952  19.310  69.845  0.00  0.00    -0.270 NA
ATOM      9  C   UNL     1      -4.966  18.110  69.232  0.00  0.00    +0.073 C 
ATOM     10  C   UNL     1      -5.483  19.394  71.187  0.00  0.00    +0.090 C 
ATOM     11  C   UNL     1      -7.211  19.670  69.500  0.00  0.00    +0.045 C 
ATOM     12  C   UNL     1      -8.123  19.763  68.340  0.00  0.00    -0.021 A 
ATOM     13  C   UNL     1      -9.466  19.480  68.586  0.00  0.00    -0.001 A 
ATOM     14  O   UNL     1      -4.141  19.726  67.529  0.00  0.00    -0.224 OA
ATOM     15  C   UNL     1      -5.800  21.180  66.901  0.00  0.00    +0.040 C 
ATOM     16  C   UNL     1      -5.566  20.812  65.471  0.00  0.00    +0.071 C 
ATOM     17  C   UNL     1      -5.999  17.630  68.308  0.00  0.00    +0.028 C 
ATOM     18  C   UNL     1      -6.459  19.636  65.182  0.00  0.00    +0.191 C 
ATOM     19  O   UNL     1      -6.438  19.377  63.975  0.00  0.00    -0.292 OA
ATOM     20  C   UNL     1      -7.659  19.143  67.182  0.00  0.00    +0.017 A 
ATOM     21  C   UNL     1     -10.170  18.529  67.843  0.00  0.00    +0.040 A 
ENDROOT
BRANCH   1  23
ATOM     22  C   UNL     1     -10.273  16.014  66.951  0.00  0.00    +0.253 C 
ATOM     23  O   UNL     1      -9.952  16.465  66.546  0.00  0.00    -0.468 OA
ENDBRANCH   1  23
TORSDOF 1
ENDMDL
MODEL 7
REMARK VINA RESULT:      -6.0      2.114      4.165
REMARK  Name = 
REMARK  1 active torsions:
REMARK  status: ('A' for Active; 'I' for Inactive)
REMARK    1  A    between atoms: O_2  and  C_3
REMARK                            x       y       z     vdW  Elec       q    Type
REMARK                         _______ _______ _______ _____ _____    ______ ____
ROOT
ATOM      1  C   UNL     1      -9.869  16.364  67.149  0.00  0.00    +0.172 A 
ATOM      2  C   UNL     1     -10.663  15.297  66.737  0.00  0.00    +0.169 A 
ATOM      3  O   UNL     1     -11.971  15.203  66.443  0.00  0.00    -0.469 OA
ATOM      4  C   UNL     1     -12.314  13.730  66.125  0.00  0.00    +0.228 C 
ATOM      5  C   UNL     1     -10.979  13.105  66.820  0.00  0.00    +0.094 C 
ATOM      6  C   UNL     1     -10.633  11.904  66.194  0.00  0.00    +0.148 C 
ATOM      7  C   UNL     1      -9.272  11.282  66.847  0.00  0.00    +0.090 C 
ATOM      8  N   UNL     1     -10.011  10.773  68.140  0.00  0.00    -0.270 NA
ATOM      9  C   UNL     1     -11.026  11.545  68.574  0.00  0.00    +0.073 C 
ATOM     10  C   UNL     1      -8.872  10.596  69.012  0.00  0.00    +0.090 C 
ATOM     11  C   UNL     1      -8.665  12.584  67.630  0.00  0.00    +0.045 C 
ATOM     12  C   UNL     1      -8.741  13.770  66.750  0.00  0.00    -0.021 A 
ATOM     13  C   UNL     1      -7.957  14.863  67.119  0.00  0.00    -0.001 A 
ATOM     14  O   UNL     1     -11.602  10.931  66.232  0.00  0.00    -0.224 OA
ATOM     15  C   UNL     1     -10.167  11.923  64.743  0.00  0.00    +0.040 C 
ATOM     16  C   UNL     1     -11.339  12.495  64.012  0.00  0.00    +0.071 C 
ATOM     17  C   UNL     1     -11.214  12.968  68.270  0.00  0.00    +0.028 C 
ATOM     18  C   UNL     1     -11.630  13.827  64.651  0.00  0.00    +0.191 C 
ATOM     19  O   UNL     1     -12.486  14.430  63.996  0.00  0.00    -0.292 OA
ATOM     20  C   UNL     1     -10.033  14.148  66.392  0.00  0.00    +0.017 A 
ATOM     21  C   UNL     1      -8.498  16.141  67.279  0.00  0.00    +0.040 A 
ENDROOT
BRANCH   1  23
ATOM     22  C   UNL     1     -10.437  18.057  67.808  0.00  0.00    +0.253 C 
ATOM     23  O   UNL     1     -10.528  17.378  67.858  0.00  0.00    -0.468 OA
ENDBRANCH   1  23
TORSDOF 1
ENDMDL
MODEL 8
REMARK VINA RESULT:      -5.9      2.032      4.105
REMARK  Name = 
REMARK  1 active torsions:
REMARK  status: ('A' for Active; 'I' for Inactive)
REMARK    1  A    between atoms: O_2  and  C_3
REMARK                            x       y       z     vdW  Elec       q    Type
REMARK                         _______ _______ _______ _____ _____    ______ ____
ROOT
ATOM      1  C   UNL     1      -8.364  16.091  67.703  0.00  0.00    +0.172 A 
ATOM      2  C   UNL     1      -9.510  15.441  67.252  0.00  0.00    +0.169 A 
ATOM      3  O   UNL     1     -10.747  15.882  66.965  0.00  0.00    -0.469 OA
ATOM      4  C   UNL     1     -11.639  14.679  66.585  0.00  0.00    +0.228 C 
ATOM      5  C   UNL     1     -10.664  13.549  67.240  0.00  0.00    +0.094 C 
ATOM      6  C   UNL     1     -10.812  12.337  66.560  0.00  0.00    +0.148 C 
ATOM      7  C   UNL     1      -9.812  11.202  67.173  0.00  0.00    +0.090 C 
ATOM      8  N   UNL     1     -10.704  10.969  68.448  0.00  0.00    -0.270 NA
ATOM      9  C   UNL     1     -11.337  12.058  68.925  0.00  0.00    +0.073 C 
ATOM     10  C   UNL     1      -9.735  10.319  69.302  0.00  0.00    +0.090 C 
ATOM     11  C   UNL     1      -8.749  12.124  68.007  0.00  0.00    +0.045 C 
ATOM     12  C   UNL     1      -8.344  13.282  67.181  0.00  0.00    -0.021 A 
ATOM     13  C   UNL     1      -7.196  13.961  67.591  0.00  0.00    -0.001 A 
ATOM     14  O   UNL     1     -12.087  11.823  66.563  0.00  0.00    -0.224 OA
ATOM     15  C   UNL     1     -10.363  12.235  65.107  0.00  0.00    +0.040 C 
ATOM     16  C   UNL     1     -11.208  13.254  64.412  0.00  0.00    +0.071 C 
ATOM     17  C   UNL     1     -10.947  13.452  68.685  0.00  0.00    +0.028 C 
ATOM     18  C   UNL     1     -10.958  14.563  65.111  0.00  0.00    +0.191 C 
ATOM     19  O   UNL     1     -11.501  15.482  64.491  0.00  0.00    -0.292 OA
ATOM     20  C   UNL     1      -9.380  14.153  66.851  0.00  0.00    +0.017 A 
ATOM     21  C   UNL     1      -7.193  15.341  67.812  0.00  0.00    +0.040 A 
ENDROOT
BRANCH   1  23
ATOM     22  C   UNL     1      -8.122  17.736  68.629  0.00  0.00    +0.253 C 
ATOM     23  O   UNL     1      -8.578  17.250  68.462  0.00  0.00    -0.468 OA
ENDBRANCH   1  23
TORSDOF 1
ENDMDL
MODEL 9
REMARK VINA RESULT:      -5.9      2.831      4.711
REMARK  Name = 
REMARK  1 active torsions:
REMARK  status: ('A' for Active; 'I' for Inactive)
REMARK    1  A    between atoms: O_2  and  C_3
REMARK                            x       y       z     vdW  Elec       q    Type
REMARK                         _______ _______ _______ _____ _____    ______ ____
ROOT
ATOM      1  C   UNL     1     -10.332  13.524  66.722  0.00  0.00    +0.172 A 
ATOM      2  C   UNL     1      -9.392  14.294  67.401  0.00  0.00    +0.169 A 
ATOM      3  O   UNL     1      -8.654  14.061  68.500  0.00  0.00    -0.469 OA
ATOM      4  C   UNL     1      -7.838  15.328  68.840  0.00  0.00    +0.228 C 
ATOM      5  C   UNL     1      -8.743  16.343  67.942  0.00  0.00    +0.094 C 
ATOM      6  C   UNL     1      -7.964  17.418  67.505  0.00  0.00    +0.148 C 
ATOM      7  C   UNL     1      -8.841  18.425  66.566  0.00  0.00    +0.090 C 
ATOM      8  N   UNL     1      -9.605  19.055  67.790  0.00  0.00    -0.270 NA
ATOM      9  C   UNL     1      -9.863  18.215  68.811  0.00  0.00    +0.073 C 
ATOM     10  C   UNL     1     -10.727  19.643  67.095  0.00  0.00    +0.090 C 
ATOM     11  C   UNL     1     -10.116  17.477  66.177  0.00  0.00    +0.045 C 
ATOM     12  C   UNL     1      -9.634  16.133  65.793  0.00  0.00    -0.021 A 
ATOM     13  C   UNL     1     -10.540  15.326  65.104  0.00  0.00    -0.001 A 
ATOM     14  O   UNL     1      -7.393  18.165  68.507  0.00  0.00    -0.224 OA
ATOM     15  C   UNL     1      -6.828  17.167  66.520  0.00  0.00    +0.040 C 
ATOM     16  C   UNL     1      -5.931  16.227  67.260  0.00  0.00    +0.071 C 
ATOM     17  C   UNL     1      -9.925  16.751  68.725  0.00  0.00    +0.028 C 
ATOM     18  C   UNL     1      -6.778  15.042  67.639  0.00  0.00    +0.191 C 
ATOM     19  O   UNL     1      -6.066  14.151  68.114  0.00  0.00    -0.292 OA
ATOM     20  C   UNL     1      -8.976  15.438  66.805  0.00  0.00    +0.017 A 
ATOM     21  C   UNL     1     -10.857  14.035  65.535  0.00  0.00    +0.040 A 
ENDROOT
BRANCH   1  23
ATOM     22  C   UNL     1     -11.705  12.496  67.547  0.00  0.00    +0.253 C 
ATOM     23  O   UNL     1     -11.026  12.584  67.498  0.00  0.00    -0.468 OA
ENDBRANCH   1  23
TORSDOF 1
ENDMDL
