MODEL 1
REMARK VINA RESULT:      -7.0      0.000      0.000
REMARK  Name = 
REMARK  13 active torsions:
REMARK  status: ('A' for Active; 'I' for Inactive)
REMARK    1  A    between atoms: C_3  and  C_4
REMARK    2  A    between atoms: C_4  and  C_5
REMARK    3  A    between atoms: C_5  and  C_7
REMARK    4  A    between atoms: C_7  and  C_9
REMARK    5  A    between atoms: C_10  and  C_11
REMARK    6  A    between atoms: C_15  and  C_16
REMARK    7  A    between atoms: C_16  and  C_17
REMARK    8  A    between atoms: C_17  and  C_18
REMARK    9  A    between atoms: C_18  and  C_19
REMARK   10  A    between atoms: C_19  and  O_21
REMARK   11  A    between atoms: O_21  and  C_22
REMARK   12  A    between atoms: C_22  and  C_23
REMARK   13  A    between atoms: C_23  and  C_25
REMARK                            x       y       z     vdW  Elec       q    Type
REMARK                         _______ _______ _______ _____ _____    ______ ____
ROOT
ATOM      1  C   UNL     1      -7.977  19.788  66.544  0.00  0.00    +0.052 C 
ATOM      2  C   UNL     1      -9.369  20.327  67.354  0.00  0.00    +0.156 C 
ATOM      3  O   UNL     1     -10.295  19.627  66.378  0.00  0.00    -0.223 OA
ATOM      4  C   UNL     1      -9.382  19.217  68.570  0.00  0.00    +0.034 C 
ATOM      5  C   UNL     1      -9.394  18.050  67.496  0.00  0.00    +0.007 C 
ATOM      6  C   UNL     1      -8.897  16.764  68.383  0.00  0.00    +0.022 C 
ATOM      7  C   UNL     1      -8.558  16.155  67.008  0.00  0.00    -0.048 C 
ATOM      8  C   UNL     1      -9.345  15.358  66.240  0.00  0.00    -0.035 C 
ATOM      9  C   UNL     1      -7.906  17.262  66.168  0.00  0.00    +0.022 C 
ATOM     10  C   UNL     1      -7.743  18.357  67.365  0.00  0.00    +0.011 C 
ENDROOT
BRANCH   1  12
ATOM     11  C   UNL     1      -5.958  20.385  67.865  0.00  0.00    +0.002 C 
ATOM     12  C   UNL     1      -7.145  20.729  67.557  0.00  0.00    -0.026 C 
BRANCH  11  13
ATOM     13  C   UNL     1      -5.323  20.433  69.340  0.00  0.00    +0.175 C 
ATOM     14  O   UNL     1      -4.154  21.299  68.921  0.00  0.00    -0.218 OA
BRANCH  13  15
ATOM     15  C   UNL     1      -4.583  18.909  69.098  0.00  0.00    +0.048 C 
ATOM     16  C   UNL     1      -3.313  19.063  70.081  0.00  0.00    +0.004 C 
BRANCH  15  17
ATOM     17  C   UNL     1      -5.533  18.282  70.257  0.00  0.00    +0.079 C 
BRANCH  17  20
ATOM     18  C   UNL     1      -6.348  14.335  69.757  0.00  0.00    +0.090 C 
ATOM     19  C   UNL     1      -5.720  15.655  69.684  0.00  0.00    -0.090 C 
ATOM     20  C   UNL     1      -5.570  16.830  69.974  0.00  0.00    -0.091 C 
ENDBRANCH  17  20
ENDBRANCH  15  17
ENDBRANCH  13  15
ENDBRANCH  11  13
ENDBRANCH   1  12
BRANCH   8  21
ATOM     21  C   UNL     1     -10.622  15.840  65.607  0.00  0.00    +0.026 C 
BRANCH  21  22
ATOM     22  C   UNL     1     -10.891  14.701  64.624  0.00  0.00    +0.016 C 
BRANCH  22  23
ATOM     23  C   UNL     1     -12.150  14.231  65.395  0.00  0.00    +0.110 C 
BRANCH  23  24
ATOM     24  C   UNL     1     -12.206  12.737  65.321  0.00  0.00    +0.317 C 
ATOM     25  O   UNL     1     -13.187  12.349  64.597  0.00  0.00    -0.250 OA
BRANCH  24  26
ATOM     26  O   UNL     1     -12.097  11.859  66.406  0.00  0.00    -0.440 OA
BRANCH  26  27
ATOM     27  C   UNL     1     -11.050  12.131  67.358  0.00  0.00    +0.277 C 
BRANCH  27  28
ATOM     28  C   UNL     1     -11.772  12.138  68.666  0.00  0.00    +0.217 C 
ATOM     29  O   UNL     1     -12.316  11.005  68.911  0.00  0.00    -0.287 OA
BRANCH  28  30
ATOM     30  C   UNL     1     -11.887  13.319  69.477  0.00  0.00    +0.038 A 
ATOM     31  C   UNL     1     -12.344  13.173  70.768  0.00  0.00    +0.003 A 
ATOM     32  C   UNL     1     -12.661  14.294  71.552  0.00  0.00    +0.000 A 
ATOM     33  C   UNL     1     -12.629  15.566  70.997  0.00  0.00    +0.000 A 
ATOM     34  C   UNL     1     -12.043  15.737  69.766  0.00  0.00    +0.000 A 
ATOM     35  C   UNL     1     -11.918  14.607  69.014  0.00  0.00    +0.003 A 
ENDBRANCH  28  30
ENDBRANCH  27  28
ENDBRANCH  26  27
ENDBRANCH  24  26
ENDBRANCH  23  24
ENDBRANCH  22  23
ENDBRANCH  21  22
ENDBRANCH   8  21
TORSDOF 13
ENDMDL
MODEL 2
REMARK VINA RESULT:      -6.6      1.676      2.264
REMARK  Name = 
REMARK  13 active torsions:
REMARK  status: ('A' for Active; 'I' for Inactive)
REMARK    1  A    between atoms: C_3  and  C_4
REMARK    2  A    between atoms: C_4  and  C_5
REMARK    3  A    between atoms: C_5  and  C_7
REMARK    4  A    between atoms: C_7  and  C_9
REMARK    5  A    between atoms: C_10  and  C_11
REMARK    6  A    between atoms: C_15  and  C_16
REMARK    7  A    between atoms: C_16  and  C_17
REMARK    8  A    between atoms: C_17  and  C_18
REMARK    9  A    between atoms: C_18  and  C_19
REMARK   10  A    between atoms: C_19  and  O_21
REMARK   11  A    between atoms: O_21  and  C_22
REMARK   12  A    between atoms: C_22  and  C_23
REMARK   13  A    between atoms: C_23  and  C_25
REMARK                            x       y       z     vdW  Elec       q    Type
REMARK                         _______ _______ _______ _____ _____    ______ ____
ROOT
ATOM      1  C   UNL     1      -8.361  19.486  66.420  0.00  0.00    +0.052 C 
ATOM      2  C   UNL     1      -9.858  20.071  66.969  0.00  0.00    +0.156 C 
ATOM      3  O   UNL     1     -10.612  19.421  65.825  0.00  0.00    -0.223 OA
ATOM      4  C   UNL     1     -10.139  18.946  68.139  0.00  0.00    +0.034 C 
ATOM      5  C   UNL     1      -9.995  17.795  67.057  0.00  0.00    +0.007 C 
ATOM      6  C   UNL     1      -9.721  16.478  67.995  0.00  0.00    +0.022 C 
ATOM      7  C   UNL     1      -9.155  15.874  66.694  0.00  0.00    -0.048 C 
ATOM      8  C   UNL     1      -9.815  15.120  65.778  0.00  0.00    -0.035 C 
ATOM      9  C   UNL     1      -8.317  16.964  66.013  0.00  0.00    +0.022 C 
ATOM     10  C   UNL     1      -8.338  18.036  67.241  0.00  0.00    +0.011 C 
ENDROOT
BRANCH   1  12
ATOM     11  C   UNL     1      -6.487  20.150  67.911  0.00  0.00    +0.002 C 
ATOM     12  C   UNL     1      -7.697  20.379  67.589  0.00  0.00    -0.026 C 
BRANCH  11  13
ATOM     13  C   UNL     1      -5.915  20.078  69.410  0.00  0.00    +0.175 C 
ATOM     14  O   UNL     1      -4.950  21.227  69.209  0.00  0.00    -0.218 OA
BRANCH  13  15
ATOM     15  C   UNL     1      -4.858  18.805  68.973  0.00  0.00    +0.048 C 
ATOM     16  C   UNL     1      -3.774  18.930  70.162  0.00  0.00    +0.004 C 
BRANCH  15  17
ATOM     17  C   UNL     1      -5.794  17.766  69.800  0.00  0.00    +0.079 C 
BRANCH  17  20
ATOM     18  C   UNL     1      -6.155  14.179  67.929  0.00  0.00    +0.090 C 
ATOM     19  C   UNL     1      -5.632  15.452  68.427  0.00  0.00    -0.090 C 
ATOM     20  C   UNL     1      -5.649  16.476  69.090  0.00  0.00    -0.091 C 
ENDBRANCH  17  20
ENDBRANCH  15  17
ENDBRANCH  13  15
ENDBRANCH  11  13
ENDBRANCH   1  12
BRANCH   8  21
ATOM     21  C   UNL     1     -10.932  15.662  64.929  0.00  0.00    +0.026 C 
BRANCH  21  22
ATOM     22  C   UNL     1     -11.874  14.458  64.909  0.00  0.00    +0.016 C 
BRANCH  22  23
ATOM     23  C   UNL     1     -10.798  13.530  64.291  0.00  0.00    +0.110 C 
BRANCH  23  24
ATOM     24  C   UNL     1     -11.494  12.348  63.694  0.00  0.00    +0.317 C 
ATOM     25  O   UNL     1     -12.759  12.418  63.877  0.00  0.00    -0.250 OA
BRANCH  24  26
ATOM     26  O   UNL     1     -11.111  11.009  63.845  0.00  0.00    -0.440 OA
BRANCH  26  27
ATOM     27  C   UNL     1      -9.765  10.768  64.301  0.00  0.00    +0.277 C 
BRANCH  27  28
ATOM     28  C   UNL     1      -9.965  10.209  65.672  0.00  0.00    +0.217 C 
ATOM     29  O   UNL     1     -10.006   8.929  65.659  0.00  0.00    -0.287 OA
BRANCH  28  30
ATOM     30  C   UNL     1     -10.168  11.044  66.824  0.00  0.00    +0.038 A 
ATOM     31  C   UNL     1     -11.464  11.321  67.200  0.00  0.00    +0.003 A 
ATOM     32  C   UNL     1     -11.738  12.277  68.191  0.00  0.00    +0.000 A 
ATOM     33  C   UNL     1     -10.712  13.043  68.727  0.00  0.00    +0.000 A 
ATOM     34  C   UNL     1      -9.412  12.681  68.469  0.00  0.00    +0.000 A 
ATOM     35  C   UNL     1      -9.232  11.870  67.388  0.00  0.00    +0.003 A 
ENDBRANCH  28  30
ENDBRANCH  27  28
ENDBRANCH  26  27
ENDBRANCH  24  26
ENDBRANCH  23  24
ENDBRANCH  22  23
ENDBRANCH  21  22
ENDBRANCH   8  21
TORSDOF 13
ENDMDL
MODEL 3
REMARK VINA RESULT:      -6.6      1.891      3.545
REMARK  Name = 
REMARK  13 active torsions:
REMARK  status: ('A' for Active; 'I' for Inactive)
REMARK    1  A    between atoms: C_3  and  C_4
REMARK    2  A    between atoms: C_4  and  C_5
REMARK    3  A    between atoms: C_5  and  C_7
REMARK    4  A    between atoms: C_7  and  C_9
REMARK    5  A    between atoms: C_10  and  C_11
REMARK    6  A    between atoms: C_15  and  C_16
REMARK    7  A    between atoms: C_16  and  C_17
REMARK    8  A    between atoms: C_17  and  C_18
REMARK    9  A    between atoms: C_18  and  C_19
REMARK   10  A    between atoms: C_19  and  O_21
REMARK   11  A    between atoms: O_21  and  C_22
REMARK   12  A    between atoms: C_22  and  C_23
REMARK   13  A    between atoms: C_23  and  C_25
REMARK                            x       y       z     vdW  Elec       q    Type
REMARK                         _______ _______ _______ _____ _____    ______ ____
ROOT
ATOM      1  C   UNL     1      -6.900  15.237  69.777  0.00  0.00    +0.052 C 
ATOM      2  C   UNL     1      -5.983  14.310  68.689  0.00  0.00    +0.156 C 
ATOM      3  O   UNL     1      -7.122  13.338  68.446  0.00  0.00    -0.223 OA
ATOM      4  C   UNL     1      -6.163  15.261  67.356  0.00  0.00    +0.034 C 
ATOM      5  C   UNL     1      -7.739  15.142  67.492  0.00  0.00    +0.007 C 
ATOM      6  C   UNL     1      -8.256  16.409  66.589  0.00  0.00    +0.022 C 
ATOM      7  C   UNL     1      -9.560  16.239  67.394  0.00  0.00    -0.048 C 
ATOM      8  C   UNL     1     -10.653  15.512  67.052  0.00  0.00    -0.035 C 
ATOM      9  C   UNL     1      -9.162  15.986  68.855  0.00  0.00    +0.022 C 
ATOM     10  C   UNL     1      -7.573  16.310  68.695  0.00  0.00    +0.011 C 
ENDROOT
BRANCH   1  12
ATOM     11  C   UNL     1      -5.640  17.317  70.288  0.00  0.00    +0.002 C 
ATOM     12  C   UNL     1      -5.545  16.069  70.055  0.00  0.00    -0.026 C 
BRANCH  11  13
ATOM     13  C   UNL     1      -4.687  18.457  69.676  0.00  0.00    +0.175 C 
ATOM     14  O   UNL     1      -4.055  18.792  71.010  0.00  0.00    -0.218 OA
BRANCH  13  15
ATOM     15  C   UNL     1      -5.967  19.592  69.731  0.00  0.00    +0.048 C 
ATOM     16  C   UNL     1      -5.115  20.957  69.848  0.00  0.00    +0.004 C 
BRANCH  15  17
ATOM     17  C   UNL     1      -5.986  19.624  68.107  0.00  0.00    +0.079 C 
BRANCH  17  20
ATOM     18  C   UNL     1     -10.026  19.974  67.873  0.00  0.00    +0.090 C 
ATOM     19  C   UNL     1      -8.602  19.939  67.537  0.00  0.00    -0.090 C 
ATOM     20  C   UNL     1      -7.417  19.741  67.746  0.00  0.00    -0.091 C 
ENDBRANCH  17  20
ENDBRANCH  15  17
ENDBRANCH  13  15
ENDBRANCH  11  13
ENDBRANCH   1  12
BRANCH   8  21
ATOM     21  C   UNL     1     -10.634  14.011  66.946  0.00  0.00    +0.026 C 
BRANCH  21  22
ATOM     22  C   UNL     1     -12.107  13.735  66.648  0.00  0.00    +0.016 C 
BRANCH  22  23
ATOM     23  C   UNL     1     -11.807  12.330  66.069  0.00  0.00    +0.110 C 
BRANCH  23  24
ATOM     24  C   UNL     1     -11.300  11.469  67.183  0.00  0.00    +0.317 C 
ATOM     25  O   UNL     1     -10.707  10.430  66.729  0.00  0.00    -0.250 OA
BRANCH  24  26
ATOM     26  O   UNL     1     -12.024  11.090  68.320  0.00  0.00    -0.440 OA
BRANCH  26  27
ATOM     27  C   UNL     1     -11.315  11.100  69.574  0.00  0.00    +0.277 C 
BRANCH  27  28
ATOM     28  C   UNL     1     -12.369  11.491  70.559  0.00  0.00    +0.217 C 
ATOM     29  O   UNL     1     -13.104  10.495  70.884  0.00  0.00    -0.287 OA
BRANCH  28  30
ATOM     30  C   UNL     1     -12.551  12.849  70.994  0.00  0.00    +0.038 A 
ATOM     31  C   UNL     1     -13.414  13.079  72.044  0.00  0.00    +0.003 A 
ATOM     32  C   UNL     1     -13.786  14.387  72.397  0.00  0.00    +0.000 A 
ATOM     33  C   UNL     1     -13.380  15.463  71.620  0.00  0.00    +0.000 A 
ATOM     34  C   UNL     1     -12.412  15.263  70.666  0.00  0.00    +0.000 A 
ATOM     35  C   UNL     1     -12.231  13.969  70.276  0.00  0.00    +0.003 A 
ENDBRANCH  28  30
ENDBRANCH  27  28
ENDBRANCH  26  27
ENDBRANCH  24  26
ENDBRANCH  23  24
ENDBRANCH  22  23
ENDBRANCH  21  22
ENDBRANCH   8  21
TORSDOF 13
ENDMDL
MODEL 4
REMARK VINA RESULT:      -6.6      3.249      5.816
REMARK  Name = 
REMARK  13 active torsions:
REMARK  status: ('A' for Active; 'I' for Inactive)
REMARK    1  A    between atoms: C_3  and  C_4
REMARK    2  A    between atoms: C_4  and  C_5
REMARK    3  A    between atoms: C_5  and  C_7
REMARK    4  A    between atoms: C_7  and  C_9
REMARK    5  A    between atoms: C_10  and  C_11
REMARK    6  A    between atoms: C_15  and  C_16
REMARK    7  A    between atoms: C_16  and  C_17
REMARK    8  A    between atoms: C_17  and  C_18
REMARK    9  A    between atoms: C_18  and  C_19
REMARK   10  A    between atoms: C_19  and  O_21
REMARK   11  A    between atoms: O_21  and  C_22
REMARK   12  A    between atoms: C_22  and  C_23
REMARK   13  A    between atoms: C_23  and  C_25
REMARK                            x       y       z     vdW  Elec       q    Type
REMARK                         _______ _______ _______ _____ _____    ______ ____
ROOT
ATOM      1  C   UNL     1     -10.804  13.934  65.074  0.00  0.00    +0.052 C 
ATOM      2  C   UNL     1     -12.416  13.961  65.606  0.00  0.00    +0.156 C 
ATOM      3  O   UNL     1     -12.586  12.469  65.395  0.00  0.00    -0.223 OA
ATOM      4  C   UNL     1     -12.131  13.963  67.229  0.00  0.00    +0.034 C 
ATOM      5  C   UNL     1     -11.284  12.631  67.075  0.00  0.00    +0.007 C 
ATOM      6  C   UNL     1     -10.412  12.619  68.463  0.00  0.00    +0.022 C 
ATOM      7  C   UNL     1      -9.498  11.650  67.687  0.00  0.00    -0.048 C 
ATOM      8  C   UNL     1      -9.551  10.294  67.676  0.00  0.00    -0.035 C 
ATOM      9  C   UNL     1      -9.344  12.210  66.267  0.00  0.00    +0.022 C 
ATOM     10  C   UNL     1     -10.057  13.652  66.536  0.00  0.00    +0.011 C 
ENDROOT
BRANCH   1  12
ATOM     11  C   UNL     1      -9.908  16.128  65.820  0.00  0.00    +0.002 C 
ATOM     12  C   UNL     1     -10.846  15.544  65.187  0.00  0.00    -0.026 C 
BRANCH  11  13
ATOM     13  C   UNL     1     -10.096  17.336  66.863  0.00  0.00    +0.175 C 
ATOM     14  O   UNL     1      -9.807  18.409  65.835  0.00  0.00    -0.218 OA
BRANCH  13  15
ATOM     15  C   UNL     1      -8.497  17.122  67.436  0.00  0.00    +0.048 C 
ATOM     16  C   UNL     1      -8.277  18.545  68.165  0.00  0.00    +0.004 C 
BRANCH  15  17
ATOM     17  C   UNL     1      -9.088  16.413  68.773  0.00  0.00    +0.079 C 
BRANCH  17  20
ATOM     18  C   UNL     1      -6.438  13.341  68.955  0.00  0.00    +0.090 C 
ATOM     19  C   UNL     1      -7.227  14.531  69.279  0.00  0.00    -0.090 C 
ATOM     20  C   UNL     1      -8.105  15.359  69.110  0.00  0.00    -0.091 C 
ENDBRANCH  17  20
ENDBRANCH  15  17
ENDBRANCH  13  15
ENDBRANCH  11  13
ENDBRANCH   1  12
BRANCH   8  21
ATOM     21  C   UNL     1     -10.705   9.529  67.085  0.00  0.00    +0.026 C 
BRANCH  21  22
ATOM     22  C   UNL     1      -9.960   8.361  66.439  0.00  0.00    +0.016 C 
BRANCH  22  23
ATOM     23  C   UNL     1      -9.561   7.758  67.809  0.00  0.00    +0.110 C 
BRANCH  23  24
ATOM     24  C   UNL     1     -10.414   6.552  68.050  0.00  0.00    +0.317 C 
ATOM     25  O   UNL     1     -10.942   6.137  66.961  0.00  0.00    -0.250 OA
BRANCH  24  26
ATOM     26  O   UNL     1     -11.362   6.411  69.071  0.00  0.00    -0.440 OA
BRANCH  26  27
ATOM     27  C   UNL     1     -10.893   5.867  70.320  0.00  0.00    +0.277 C 
BRANCH  27  28
ATOM     28  C   UNL     1     -10.651   7.084  71.153  0.00  0.00    +0.217 C 
ATOM     29  O   UNL     1      -9.553   6.999  71.805  0.00  0.00    -0.287 OA
BRANCH  28  30
ATOM     30  C   UNL     1     -11.604   8.156  71.246  0.00  0.00    +0.038 A 
ATOM     31  C   UNL     1     -11.243   9.386  70.740  0.00  0.00    +0.003 A 
ATOM     32  C   UNL     1     -12.040  10.520  70.964  0.00  0.00    +0.000 A 
ATOM     33  C   UNL     1     -13.147  10.442  71.798  0.00  0.00    +0.000 A 
ATOM     34  C   UNL     1     -13.596   9.204  72.189  0.00  0.00    +0.000 A 
ATOM     35  C   UNL     1     -12.692   8.189  72.076  0.00  0.00    +0.003 A 
ENDBRANCH  28  30
ENDBRANCH  27  28
ENDBRANCH  26  27
ENDBRANCH  24  26
ENDBRANCH  23  24
ENDBRANCH  22  23
ENDBRANCH  21  22
ENDBRANCH   8  21
TORSDOF 13
ENDMDL
MODEL 5
REMARK VINA RESULT:      -6.5      4.022      8.660
REMARK  Name = 
REMARK  13 active torsions:
REMARK  status: ('A' for Active; 'I' for Inactive)
REMARK    1  A    between atoms: C_3  and  C_4
REMARK    2  A    between atoms: C_4  and  C_5
REMARK    3  A    between atoms: C_5  and  C_7
REMARK    4  A    between atoms: C_7  and  C_9
REMARK    5  A    between atoms: C_10  and  C_11
REMARK    6  A    between atoms: C_15  and  C_16
REMARK    7  A    between atoms: C_16  and  C_17
REMARK    8  A    between atoms: C_17  and  C_18
REMARK    9  A    between atoms: C_18  and  C_19
REMARK   10  A    between atoms: C_19  and  O_21
REMARK   11  A    between atoms: O_21  and  C_22
REMARK   12  A    between atoms: C_22  and  C_23
REMARK   13  A    between atoms: C_23  and  C_25
REMARK                            x       y       z     vdW  Elec       q    Type
REMARK                         _______ _______ _______ _____ _____    ______ ____
ROOT
ATOM      1  C   UNL     1     -10.218   8.462  67.022  0.00  0.00    +0.052 C 
ATOM      2  C   UNL     1      -8.990   8.813  65.903  0.00  0.00    +0.156 C 
ATOM      3  O   UNL     1      -9.925   9.618  65.021  0.00  0.00    -0.223 OA
ATOM      4  C   UNL     1      -8.271  10.050  66.719  0.00  0.00    +0.034 C 
ATOM      5  C   UNL     1      -9.658  10.818  66.763  0.00  0.00    +0.007 C 
ATOM      6  C   UNL     1      -9.411  11.901  67.969  0.00  0.00    +0.022 C 
ATOM      7  C   UNL     1     -10.951  11.962  68.008  0.00  0.00    -0.048 C 
ATOM      8  C   UNL     1     -11.760  12.833  67.353  0.00  0.00    -0.035 C 
ATOM      9  C   UNL     1     -11.466  10.522  67.876  0.00  0.00    +0.022 C 
ATOM     10  C   UNL     1     -10.026   9.773  68.032  0.00  0.00    +0.011 C 
ENDROOT
BRANCH   1  12
ATOM     11  C   UNL     1      -9.579   6.522  68.438  0.00  0.00    +0.002 C 
ATOM     12  C   UNL     1      -9.144   7.501  67.749  0.00  0.00    -0.026 C 
BRANCH  11  13
ATOM     13  C   UNL     1      -9.027   6.076  69.880  0.00  0.00    +0.175 C 
ATOM     14  O   UNL     1      -9.191   4.597  69.600  0.00  0.00    -0.218 OA
BRANCH  13  15
ATOM     15  C   UNL     1     -10.563   6.354  70.581  0.00  0.00    +0.048 C 
ATOM     16  C   UNL     1     -10.445   5.403  71.880  0.00  0.00    +0.004 C 
BRANCH  15  17
ATOM     17  C   UNL     1      -9.959   7.651  71.350  0.00  0.00    +0.079 C 
BRANCH  17  20
ATOM     18  C   UNL     1     -13.165  10.092  71.858  0.00  0.00    +0.090 C 
ATOM     19  C   UNL     1     -11.905   9.516  71.386  0.00  0.00    -0.090 C 
ATOM     20  C   UNL     1     -11.040   8.660  71.299  0.00  0.00    -0.091 C 
ENDBRANCH  17  20
ENDBRANCH  15  17
ENDBRANCH  13  15
ENDBRANCH  11  13
ENDBRANCH   1  12
BRANCH   8  21
ATOM     21  C   UNL     1     -11.891  12.855  65.854  0.00  0.00    +0.026 C 
BRANCH  21  22
ATOM     22  C   UNL     1     -12.165  14.341  65.622  0.00  0.00    +0.016 C 
BRANCH  22  23
ATOM     23  C   UNL     1     -10.656  14.689  65.567  0.00  0.00    +0.110 C 
BRANCH  23  24
ATOM     24  C   UNL     1     -10.465  16.021  66.221  0.00  0.00    +0.317 C 
ATOM     25  O   UNL     1      -9.825  16.822  65.456  0.00  0.00    -0.250 OA
BRANCH  24  26
ATOM     26  O   UNL     1     -10.024  16.233  67.533  0.00  0.00    -0.440 OA
BRANCH  26  27
ATOM     27  C   UNL     1     -11.030  16.562  68.511  0.00  0.00    +0.277 C 
BRANCH  27  28
ATOM     28  C   UNL     1     -10.725  15.634  69.641  0.00  0.00    +0.217 C 
ATOM     29  O   UNL     1      -9.541  15.154  69.551  0.00  0.00    -0.287 OA
BRANCH  28  30
ATOM     30  C   UNL     1     -11.700  15.285  70.637  0.00  0.00    +0.038 A 
ATOM     31  C   UNL     1     -11.839  16.120  71.725  0.00  0.00    +0.003 A 
ATOM     32  C   UNL     1     -12.630  15.747  72.824  0.00  0.00    +0.000 A 
ATOM     33  C   UNL     1     -13.192  14.479  72.882  0.00  0.00    +0.000 A 
ATOM     34  C   UNL     1     -13.182  13.698  71.752  0.00  0.00    +0.000 A 
ATOM     35  C   UNL     1     -12.268  14.050  70.803  0.00  0.00    +0.003 A 
ENDBRANCH  28  30
ENDBRANCH  27  28
ENDBRANCH  26  27
ENDBRANCH  24  26
ENDBRANCH  23  24
ENDBRANCH  22  23
ENDBRANCH  21  22
ENDBRANCH   8  21
TORSDOF 13
ENDMDL
MODEL 6
REMARK VINA RESULT:      -6.3      3.694      9.072
REMARK  Name = 
REMARK  13 active torsions:
REMARK  status: ('A' for Active; 'I' for Inactive)
REMARK    1  A    between atoms: C_3  and  C_4
REMARK    2  A    between atoms: C_4  and  C_5
REMARK    3  A    between atoms: C_5  and  C_7
REMARK    4  A    between atoms: C_7  and  C_9
REMARK    5  A    between atoms: C_10  and  C_11
REMARK    6  A    between atoms: C_15  and  C_16
REMARK    7  A    between atoms: C_16  and  C_17
REMARK    8  A    between atoms: C_17  and  C_18
REMARK    9  A    between atoms: C_18  and  C_19
REMARK   10  A    between atoms: C_19  and  O_21
REMARK   11  A    between atoms: O_21  and  C_22
REMARK   12  A    between atoms: C_22  and  C_23
REMARK   13  A    between atoms: C_23  and  C_25
REMARK                            x       y       z     vdW  Elec       q    Type
REMARK                         _______ _______ _______ _____ _____    ______ ____
ROOT
ATOM      1  C   UNL     1     -10.479   8.234  67.103  0.00  0.00    +0.052 C 
ATOM      2  C   UNL     1      -9.116   8.419  66.107  0.00  0.00    +0.156 C 
ATOM      3  O   UNL     1      -9.798   9.465  65.246  0.00  0.00    -0.223 OA
ATOM      4  C   UNL     1      -8.241   9.415  67.084  0.00  0.00    +0.034 C 
ATOM      5  C   UNL     1      -9.449  10.442  67.109  0.00  0.00    +0.007 C 
ATOM      6  C   UNL     1      -9.098  11.351  68.427  0.00  0.00    +0.022 C 
ATOM      7  C   UNL     1     -10.594  11.718  68.369  0.00  0.00    -0.048 C 
ATOM      8  C   UNL     1     -11.160  12.785  67.749  0.00  0.00    -0.035 C 
ATOM      9  C   UNL     1     -11.368  10.428  68.065  0.00  0.00    +0.022 C 
ATOM     10  C   UNL     1     -10.120   9.394  68.244  0.00  0.00    +0.011 C 
ENDROOT
BRANCH   1  12
ATOM     11  C   UNL     1     -10.292   6.311  68.665  0.00  0.00    +0.002 C 
ATOM     12  C   UNL     1      -9.679   7.021  67.803  0.00  0.00    -0.026 C 
BRANCH  11  13
ATOM     13  C   UNL     1      -9.687   5.816  70.069  0.00  0.00    +0.175 C 
ATOM     14  O   UNL     1     -10.129   4.381  69.872  0.00  0.00    -0.218 OA
BRANCH  13  15
ATOM     15  C   UNL     1     -11.077   6.378  70.894  0.00  0.00    +0.048 C 
ATOM     16  C   UNL     1     -10.930   5.550  72.271  0.00  0.00    +0.004 C 
BRANCH  15  17
ATOM     17  C   UNL     1     -10.218   7.643  71.444  0.00  0.00    +0.079 C 
BRANCH  17  20
ATOM     18  C   UNL     1     -12.914  10.675  71.270  0.00  0.00    +0.090 C 
ATOM     19  C   UNL     1     -12.105   9.546  71.731  0.00  0.00    -0.090 C 
ATOM     20  C   UNL     1     -11.215   8.716  71.657  0.00  0.00    -0.091 C 
ENDBRANCH  17  20
ENDBRANCH  15  17
ENDBRANCH  13  15
ENDBRANCH  11  13
ENDBRANCH   1  12
BRANCH   8  21
ATOM     21  C   UNL     1     -11.156  12.954  66.254  0.00  0.00    +0.026 C 
BRANCH  21  22
ATOM     22  C   UNL     1     -12.225  14.036  66.095  0.00  0.00    +0.016 C 
BRANCH  22  23
ATOM     23  C   UNL     1     -11.642  14.521  64.744  0.00  0.00    +0.110 C 
BRANCH  23  24
ATOM     24  C   UNL     1     -11.290  15.969  64.885  0.00  0.00    +0.317 C 
ATOM     25  O   UNL     1     -11.665  16.636  63.859  0.00  0.00    -0.250 OA
BRANCH  24  26
ATOM     26  O   UNL     1     -10.052  16.474  65.299  0.00  0.00    -0.440 OA
BRANCH  26  27
ATOM     27  C   UNL     1     -10.072  17.472  66.338  0.00  0.00    +0.277 C 
BRANCH  27  28
ATOM     28  C   UNL     1     -10.114  16.659  67.591  0.00  0.00    +0.217 C 
ATOM     29  O   UNL     1     -11.118  16.971  68.323  0.00  0.00    -0.287 OA
BRANCH  28  30
ATOM     30  C   UNL     1      -9.086  15.715  67.932  0.00  0.00    +0.038 A 
ATOM     31  C   UNL     1      -8.683  15.647  69.248  0.00  0.00    +0.003 A 
ATOM     32  C   UNL     1      -7.560  14.891  69.620  0.00  0.00    +0.000 A 
ATOM     33  C   UNL     1      -6.768  14.291  68.650  0.00  0.00    +0.000 A 
ATOM     34  C   UNL     1      -7.235  14.230  67.359  0.00  0.00    +0.000 A 
ATOM     35  C   UNL     1      -8.226  15.115  67.052  0.00  0.00    +0.003 A 
ENDBRANCH  28  30
ENDBRANCH  27  28
ENDBRANCH  26  27
ENDBRANCH  24  26
ENDBRANCH  23  24
ENDBRANCH  22  23
ENDBRANCH  21  22
ENDBRANCH   8  21
TORSDOF 13
ENDMDL
MODEL 7
REMARK VINA RESULT:      -6.3      1.487      2.165
REMARK  Name = 
REMARK  13 active torsions:
REMARK  status: ('A' for Active; 'I' for Inactive)
REMARK    1  A    between atoms: C_3  and  C_4
REMARK    2  A    between atoms: C_4  and  C_5
REMARK    3  A    between atoms: C_5  and  C_7
REMARK    4  A    between atoms: C_7  and  C_9
REMARK    5  A    between atoms: C_10  and  C_11
REMARK    6  A    between atoms: C_15  and  C_16
REMARK    7  A    between atoms: C_16  and  C_17
REMARK    8  A    between atoms: C_17  and  C_18
REMARK    9  A    between atoms: C_18  and  C_19
REMARK   10  A    between atoms: C_19  and  O_21
REMARK   11  A    between atoms: O_21  and  C_22
REMARK   12  A    between atoms: C_22  and  C_23
REMARK   13  A    between atoms: C_23  and  C_25
REMARK                            x       y       z     vdW  Elec       q    Type
REMARK                         _______ _______ _______ _____ _____    ______ ____
ROOT
ATOM      1  C   UNL     1      -8.282  19.517  66.486  0.00  0.00    +0.052 C 
ATOM      2  C   UNL     1      -9.784  20.177  66.923  0.00  0.00    +0.156 C 
ATOM      3  O   UNL     1     -10.489  19.538  65.742  0.00  0.00    -0.223 OA
ATOM      4  C   UNL     1     -10.192  19.088  68.091  0.00  0.00    +0.034 C 
ATOM      5  C   UNL     1     -10.028  17.911  67.040  0.00  0.00    +0.007 C 
ATOM      6  C   UNL     1      -9.875  16.602  68.015  0.00  0.00    +0.022 C 
ATOM      7  C   UNL     1      -9.252  15.948  66.766  0.00  0.00    -0.048 C 
ATOM      8  C   UNL     1      -9.883  15.206  65.821  0.00  0.00    -0.035 C 
ATOM      9  C   UNL     1      -8.323  16.987  66.125  0.00  0.00    +0.022 C 
ATOM     10  C   UNL     1      -8.377  18.083  67.330  0.00  0.00    +0.011 C 
ENDROOT
BRANCH   1  12
ATOM     11  C   UNL     1      -6.416  20.279  67.940  0.00  0.00    +0.002 C 
ATOM     12  C   UNL     1      -7.657  20.403  67.682  0.00  0.00    -0.026 C 
BRANCH  11  13
ATOM     13  C   UNL     1      -5.773  20.178  69.409  0.00  0.00    +0.175 C 
ATOM     14  O   UNL     1      -4.677  21.181  69.112  0.00  0.00    -0.218 OA
BRANCH  13  15
ATOM     15  C   UNL     1      -4.920  18.762  68.965  0.00  0.00    +0.048 C 
ATOM     16  C   UNL     1      -3.594  18.948  69.866  0.00  0.00    +0.004 C 
BRANCH  15  17
ATOM     17  C   UNL     1      -5.714  17.942  70.122  0.00  0.00    +0.079 C 
BRANCH  17  20
ATOM     18  C   UNL     1      -6.036  14.493  68.002  0.00  0.00    +0.090 C 
ATOM     19  C   UNL     1      -6.226  15.544  69.003  0.00  0.00    -0.090 C 
ATOM     20  C   UNL     1      -6.065  16.647  69.497  0.00  0.00    -0.091 C 
ENDBRANCH  17  20
ENDBRANCH  15  17
ENDBRANCH  13  15
ENDBRANCH  11  13
ENDBRANCH   1  12
BRANCH   8  21
ATOM     21  C   UNL     1     -10.917  15.779  64.890  0.00  0.00    +0.026 C 
BRANCH  21  22
ATOM     22  C   UNL     1     -12.078  14.816  65.137  0.00  0.00    +0.016 C 
BRANCH  22  23
ATOM     23  C   UNL     1     -11.246  13.582  64.704  0.00  0.00    +0.110 C 
BRANCH  23  24
ATOM     24  C   UNL     1     -12.001  12.353  65.103  0.00  0.00    +0.317 C 
ATOM     25  O   UNL     1     -13.188  12.367  64.625  0.00  0.00    -0.250 OA
BRANCH  24  26
ATOM     26  O   UNL     1     -12.062  11.812  66.393  0.00  0.00    -0.440 OA
BRANCH  26  27
ATOM     27  C   UNL     1     -10.805  11.542  67.043  0.00  0.00    +0.277 C 
BRANCH  27  28
ATOM     28  C   UNL     1     -11.077  11.888  68.470  0.00  0.00    +0.217 C 
ATOM     29  O   UNL     1     -10.936  13.142  68.688  0.00  0.00    -0.287 OA
BRANCH  28  30
ATOM     30  C   UNL     1     -11.374  10.890  69.462  0.00  0.00    +0.038 A 
ATOM     31  C   UNL     1     -12.463  11.097  70.280  0.00  0.00    +0.003 A 
ATOM     32  C   UNL     1     -12.701  10.267  71.388  0.00  0.00    +0.000 A 
ATOM     33  C   UNL     1     -11.777   9.294  71.743  0.00  0.00    +0.000 A 
ATOM     34  C   UNL     1     -10.769   8.985  70.863  0.00  0.00    +0.000 A 
ATOM     35  C   UNL     1     -10.510   9.928  69.912  0.00  0.00    +0.003 A 
ENDBRANCH  28  30
ENDBRANCH  27  28
ENDBRANCH  26  27
ENDBRANCH  24  26
ENDBRANCH  23  24
ENDBRANCH  22  23
ENDBRANCH  21  22
ENDBRANCH   8  21
TORSDOF 13
ENDMDL
MODEL 8
REMARK VINA RESULT:      -6.2      4.620      9.453
REMARK  Name = 
REMARK  13 active torsions:
REMARK  status: ('A' for Active; 'I' for Inactive)
REMARK    1  A    between atoms: C_3  and  C_4
REMARK    2  A    between atoms: C_4  and  C_5
REMARK    3  A    between atoms: C_5  and  C_7
REMARK    4  A    between atoms: C_7  and  C_9
REMARK    5  A    between atoms: C_10  and  C_11
REMARK    6  A    between atoms: C_15  and  C_16
REMARK    7  A    between atoms: C_16  and  C_17
REMARK    8  A    between atoms: C_17  and  C_18
REMARK    9  A    between atoms: C_18  and  C_19
REMARK   10  A    between atoms: C_19  and  O_21
REMARK   11  A    between atoms: O_21  and  C_22
REMARK   12  A    between atoms: C_22  and  C_23
REMARK   13  A    between atoms: C_23  and  C_25
REMARK                            x       y       z     vdW  Elec       q    Type
REMARK                         _______ _______ _______ _____ _____    ______ ____
ROOT
ATOM      1  C   UNL     1      -8.347   7.105  68.661  0.00  0.00    +0.052 C 
ATOM      2  C   UNL     1      -7.030   8.058  69.153  0.00  0.00    +0.156 C 
ATOM      3  O   UNL     1      -7.149   8.972  67.949  0.00  0.00    -0.223 OA
ATOM      4  C   UNL     1      -7.812   8.989  70.265  0.00  0.00    +0.034 C 
ATOM      5  C   UNL     1      -8.847   9.438  69.151  0.00  0.00    +0.007 C 
ATOM      6  C   UNL     1     -10.096   9.999  70.053  0.00  0.00    +0.022 C 
ATOM      7  C   UNL     1     -10.911   9.783  68.762  0.00  0.00    -0.048 C 
ATOM      8  C   UNL     1     -11.170  10.691  67.786  0.00  0.00    -0.035 C 
ATOM      9  C   UNL     1     -10.468   8.440  68.165  0.00  0.00    +0.022 C 
ATOM     10  C   UNL     1      -9.567   7.941  69.428  0.00  0.00    +0.011 C 
ENDROOT
BRANCH   1  12
ATOM     11  C   UNL     1      -8.921   5.524  70.490  0.00  0.00    +0.002 C 
ATOM     12  C   UNL     1      -7.974   6.133  69.895  0.00  0.00    -0.026 C 
BRANCH  11  13
ATOM     13  C   UNL     1      -9.071   5.357  72.081  0.00  0.00    +0.175 C 
ATOM     14  O   UNL     1      -9.174   3.847  72.018  0.00  0.00    -0.218 OA
BRANCH  13  15
ATOM     15  C   UNL     1     -10.743   5.710  71.985  0.00  0.00    +0.048 C 
ATOM     16  C   UNL     1     -11.261   4.933  73.301  0.00  0.00    +0.004 C 
BRANCH  15  17
ATOM     17  C   UNL     1     -10.478   7.099  72.785  0.00  0.00    +0.079 C 
BRANCH  17  20
ATOM     18  C   UNL     1     -14.071   8.811  71.974  0.00  0.00    +0.090 C 
ATOM     19  C   UNL     1     -12.655   8.608  72.286  0.00  0.00    -0.090 C 
ATOM     20  C   UNL     1     -11.639   7.956  72.453  0.00  0.00    -0.091 C 
ENDBRANCH  17  20
ENDBRANCH  15  17
ENDBRANCH  13  15
ENDBRANCH  11  13
ENDBRANCH   1  12
BRANCH   8  21
ATOM     21  C   UNL     1     -10.097  11.264  66.901  0.00  0.00    +0.026 C 
BRANCH  21  22
ATOM     22  C   UNL     1     -10.941  11.762  65.728  0.00  0.00    +0.016 C 
BRANCH  22  23
ATOM     23  C   UNL     1     -11.912  12.535  66.655  0.00  0.00    +0.110 C 
BRANCH  23  24
ATOM     24  C   UNL     1     -11.927  13.966  66.218  0.00  0.00    +0.317 C 
ATOM     25  O   UNL     1     -11.354  14.107  65.083  0.00  0.00    -0.250 OA
BRANCH  24  26
ATOM     26  O   UNL     1     -11.587  15.068  67.012  0.00  0.00    -0.440 OA
BRANCH  26  27
ATOM     27  C   UNL     1     -10.767  14.808  68.167  0.00  0.00    +0.277 C 
BRANCH  27  28
ATOM     28  C   UNL     1     -11.592  15.331  69.298  0.00  0.00    +0.217 C 
ATOM     29  O   UNL     1     -11.455  16.596  69.436  0.00  0.00    -0.287 OA
BRANCH  28  30
ATOM     30  C   UNL     1     -12.363  14.470  70.152  0.00  0.00    +0.038 A 
ATOM     31  C   UNL     1     -13.209  15.058  71.067  0.00  0.00    +0.003 A 
ATOM     32  C   UNL     1     -13.846  14.292  72.056  0.00  0.00    +0.000 A 
ATOM     33  C   UNL     1     -13.542  12.945  72.201  0.00  0.00    +0.000 A 
ATOM     34  C   UNL     1     -12.817  12.320  71.216  0.00  0.00    +0.000 A 
ATOM     35  C   UNL     1     -12.107  13.147  70.396  0.00  0.00    +0.003 A 
ENDBRANCH  28  30
ENDBRANCH  27  28
ENDBRANCH  26  27
ENDBRANCH  24  26
ENDBRANCH  23  24
ENDBRANCH  22  23
ENDBRANCH  21  22
ENDBRANCH   8  21
TORSDOF 13
ENDMDL
MODEL 9
REMARK VINA RESULT:      -6.2      4.417      9.712
REMARK  Name = 
REMARK  13 active torsions:
REMARK  status: ('A' for Active; 'I' for Inactive)
REMARK    1  A    between atoms: C_3  and  C_4
REMARK    2  A    between atoms: C_4  and  C_5
REMARK    3  A    between atoms: C_5  and  C_7
REMARK    4  A    between atoms: C_7  and  C_9
REMARK    5  A    between atoms: C_10  and  C_11
REMARK    6  A    between atoms: C_15  and  C_16
REMARK    7  A    between atoms: C_16  and  C_17
REMARK    8  A    between atoms: C_17  and  C_18
REMARK    9  A    between atoms: C_18  and  C_19
REMARK   10  A    between atoms: C_19  and  O_21
REMARK   11  A    between atoms: O_21  and  C_22
REMARK   12  A    between atoms: C_22  and  C_23
REMARK   13  A    between atoms: C_23  and  C_25
REMARK                            x       y       z     vdW  Elec       q    Type
REMARK                         _______ _______ _______ _____ _____    ______ ____
ROOT
ATOM      1  C   UNL     1      -8.559   8.433  67.984  0.00  0.00    +0.052 C 
ATOM      2  C   UNL     1      -7.378   9.164  68.961  0.00  0.00    +0.156 C 
ATOM      3  O   UNL     1      -7.626  10.534  68.360  0.00  0.00    -0.223 OA
ATOM      4  C   UNL     1      -8.270   9.318  70.338  0.00  0.00    +0.034 C 
ATOM      5  C   UNL     1      -9.363  10.135  69.530  0.00  0.00    +0.007 C 
ATOM      6  C   UNL     1     -10.670  10.021  70.512  0.00  0.00    +0.022 C 
ATOM      7  C   UNL     1     -11.457  10.380  69.236  0.00  0.00    -0.048 C 
ATOM      8  C   UNL     1     -11.841  11.614  68.821  0.00  0.00    -0.035 C 
ATOM      9  C   UNL     1     -10.843   9.575  68.083  0.00  0.00    +0.022 C 
ATOM     10  C   UNL     1      -9.875   8.625  68.988  0.00  0.00    +0.011 C 
ENDROOT
BRANCH   1  12
ATOM     11  C   UNL     1      -8.896   6.299  69.212  0.00  0.00    +0.002 C 
ATOM     12  C   UNL     1      -8.053   7.028  68.598  0.00  0.00    -0.026 C 
BRANCH  11  13
ATOM     13  C   UNL     1      -8.632   5.525  70.596  0.00  0.00    +0.175 C 
ATOM     14  O   UNL     1      -8.096   4.282  69.919  0.00  0.00    -0.218 OA
BRANCH  13  15
ATOM     15  C   UNL     1     -10.276   5.058  70.678  0.00  0.00    +0.048 C 
ATOM     16  C   UNL     1     -10.192   3.975  71.871  0.00  0.00    +0.004 C 
BRANCH  15  17
ATOM     17  C   UNL     1     -10.561   6.299  71.686  0.00  0.00    +0.079 C 
BRANCH  17  20
ATOM     18  C   UNL     1     -14.400   7.624  71.663  0.00  0.00    +0.090 C 
ATOM     19  C   UNL     1     -13.083   7.143  71.245  0.00  0.00    -0.090 C 
ATOM     20  C   UNL     1     -11.960   6.697  71.412  0.00  0.00    -0.091 C 
ENDBRANCH  17  20
ENDBRANCH  15  17
ENDBRANCH  13  15
ENDBRANCH  11  13
ENDBRANCH   1  12
BRANCH   8  21
ATOM     21  C   UNL     1     -10.859  12.674  68.401  0.00  0.00    +0.026 C 
BRANCH  21  22
ATOM     22  C   UNL     1     -11.620  13.935  68.814  0.00  0.00    +0.016 C 
BRANCH  22  23
ATOM     23  C   UNL     1     -10.316  14.735  69.058  0.00  0.00    +0.110 C 
BRANCH  23  24
ATOM     24  C   UNL     1     -10.518  16.119  68.528  0.00  0.00    +0.317 C 
ATOM     25  O   UNL     1     -11.092  16.865  69.394  0.00  0.00    -0.250 OA
BRANCH  24  26
ATOM     26  O   UNL     1     -11.033  16.447  67.268  0.00  0.00    -0.440 OA
BRANCH  26  27
ATOM     27  C   UNL     1     -10.087  16.547  66.186  0.00  0.00    +0.277 C 
BRANCH  27  28
ATOM     28  C   UNL     1     -10.837  15.984  65.023  0.00  0.00    +0.217 C 
ATOM     29  O   UNL     1     -11.307  16.909  64.272  0.00  0.00    -0.287 OA
BRANCH  28  30
ATOM     30  C   UNL     1     -11.053  14.573  64.854  0.00  0.00    +0.038 A 
ATOM     31  C   UNL     1     -12.340  14.098  64.977  0.00  0.00    +0.003 A 
ATOM     32  C   UNL     1     -12.598  12.718  65.014  0.00  0.00    +0.000 A 
ATOM     33  C   UNL     1     -11.549  11.811  65.044  0.00  0.00    +0.000 A 
ATOM     34  C   UNL     1     -10.278  12.260  64.779  0.00  0.00    +0.000 A 
ATOM     35  C   UNL     1     -10.089  13.604  64.920  0.00  0.00    +0.003 A 
ENDBRANCH  28  30
ENDBRANCH  27  28
ENDBRANCH  26  27
ENDBRANCH  24  26
ENDBRANCH  23  24
ENDBRANCH  22  23
ENDBRANCH  21  22
ENDBRANCH   8  21
TORSDOF 13
ENDMDL
