MODEL 1
REMARK VINA RESULT:      -5.5      0.000      0.000
REMARK  Name = 
REMARK  5 active torsions:
REMARK  status: ('A' for Active; 'I' for Inactive)
REMARK    1  A    between atoms: C_2  and  C_3
REMARK    2  A    between atoms: C_3  and  C_4
REMARK    3  A    between atoms: C_4  and  C_5
REMARK    4  A    between atoms: C_5  and  C_7
REMARK    5  A    between atoms: C_8  and  C_9
REMARK                            x       y       z     vdW  Elec       q    Type
REMARK                         _______ _______ _______ _____ _____    ______ ____
ROOT
ATOM      1  C   UNL     1     -10.608  13.222  66.603  0.00  0.00    +0.155 C 
ATOM      2  C   UNL     1      -9.840  12.438  65.668  0.00  0.00    +0.241 C 
ATOM      3  O   UNL     1      -9.286  11.345  66.001  0.00  0.00    -0.274 OA
ATOM      4  N   UNL     1     -10.494  12.409  64.385  0.00  0.00    -0.210 N 
ATOM      5  C   UNL     1      -9.820  11.770  63.265  0.00  0.00    +0.124 C 
ATOM      6  C   UNL     1     -11.881  12.768  64.239  0.00  0.00    +0.336 C 
ATOM      7  O   UNL     1     -12.422  12.934  63.128  0.00  0.00    -0.250 OA
ATOM      8  N   UNL     1     -12.600  12.617  65.477  0.00  0.00    -0.127 NA
ATOM      9  C   UNL     1     -11.899  12.566  66.743  0.00  0.00    +0.258 C 
ATOM     10  O   UNL     1     -12.126  11.476  67.356  0.00  0.00    -0.272 OA
ENDROOT
BRANCH   1  11
ATOM     11  C   UNL     1      -9.872  13.448  68.017  0.00  0.00    +0.081 C 
ATOM     12  C   UNL     1     -10.421  12.041  68.671  0.00  0.00    +0.015 C 
BRANCH  11  13
ATOM     13  C   UNL     1     -11.049  14.296  68.673  0.00  0.00    -0.091 C 
ATOM     14  C   UNL     1     -11.375  14.430  69.844  0.00  0.00    -0.091 C 
BRANCH  14  15
ATOM     15  C   UNL     1     -12.127  14.563  71.100  0.00  0.00    +0.076 C 
ATOM     16  C   UNL     1     -11.824  15.916  71.689  0.00  0.00    +0.015 C 
ENDBRANCH  14  15
ENDBRANCH  11  13
ENDBRANCH   1  11
BRANCH   1  17
ATOM     17  C   UNL     1     -10.815  14.635  66.120  0.00  0.00    +0.044 C 
BRANCH  17  19
ATOM     18  C   UNL     1      -9.119  16.270  66.059  0.00  0.00    -0.005 C 
ATOM     19  C   UNL     1      -9.568  15.342  65.777  0.00  0.00    -0.025 C 
ENDBRANCH  17  19
ENDBRANCH   1  17
TORSDOF 5
ENDMDL
MODEL 2
REMARK VINA RESULT:      -5.3      2.594      3.764
REMARK  Name = 
REMARK  5 active torsions:
REMARK  status: ('A' for Active; 'I' for Inactive)
REMARK    1  A    between atoms: C_2  and  C_3
REMARK    2  A    between atoms: C_3  and  C_4
REMARK    3  A    between atoms: C_4  and  C_5
REMARK    4  A    between atoms: C_5  and  C_7
REMARK    5  A    between atoms: C_8  and  C_9
REMARK                            x       y       z     vdW  Elec       q    Type
REMARK                         _______ _______ _______ _____ _____    ______ ____
ROOT
ATOM      1  C   UNL     1     -10.685  14.573  67.670  0.00  0.00    +0.155 C 
ATOM      2  C   UNL     1     -10.482  15.946  68.061  0.00  0.00    +0.241 C 
ATOM      3  O   UNL     1      -9.549  16.290  68.852  0.00  0.00    -0.274 OA
ATOM      4  N   UNL     1     -10.656  16.820  66.929  0.00  0.00    -0.210 N 
ATOM      5  C   UNL     1     -10.613  18.259  67.137  0.00  0.00    +0.124 C 
ATOM      6  C   UNL     1     -10.623  16.318  65.580  0.00  0.00    +0.336 C 
ATOM      7  O   UNL     1     -10.955  17.006  64.595  0.00  0.00    -0.250 OA
ATOM      8  N   UNL     1      -9.900  15.075  65.494  0.00  0.00    -0.127 NA
ATOM      9  C   UNL     1      -9.672  14.265  66.671  0.00  0.00    +0.258 C 
ATOM     10  O   UNL     1      -8.430  14.098  66.887  0.00  0.00    -0.272 OA
ENDROOT
BRANCH   1  11
ATOM     11  C   UNL     1     -10.672  13.540  68.904  0.00  0.00    +0.081 C 
ATOM     12  C   UNL     1     -11.330  12.303  68.040  0.00  0.00    +0.015 C 
BRANCH  11  13
ATOM     13  C   UNL     1     -12.087  13.978  69.489  0.00  0.00    -0.091 C 
ATOM     14  C   UNL     1     -12.481  14.053  70.645  0.00  0.00    -0.091 C 
BRANCH  14  15
ATOM     15  C   UNL     1     -13.278  13.990  71.878  0.00  0.00    +0.076 C 
ATOM     16  C   UNL     1     -14.515  14.827  71.682  0.00  0.00    +0.015 C 
ENDBRANCH  14  15
ENDBRANCH  11  13
ENDBRANCH   1  11
BRANCH   1  17
ATOM     17  C   UNL     1     -12.053  14.351  67.079  0.00  0.00    +0.044 C 
BRANCH  17  19
ATOM     18  C   UNL     1     -12.761  13.264  65.112  0.00  0.00    -0.005 C 
ATOM     19  C   UNL     1     -12.060  13.481  65.888  0.00  0.00    -0.025 C 
ENDBRANCH  17  19
ENDBRANCH   1  17
TORSDOF 5
ENDMDL
MODEL 3
REMARK VINA RESULT:      -5.3      1.758      3.107
REMARK  Name = 
REMARK  5 active torsions:
REMARK  status: ('A' for Active; 'I' for Inactive)
REMARK    1  A    between atoms: C_2  and  C_3
REMARK    2  A    between atoms: C_3  and  C_4
REMARK    3  A    between atoms: C_4  and  C_5
REMARK    4  A    between atoms: C_5  and  C_7
REMARK    5  A    between atoms: C_8  and  C_9
REMARK                            x       y       z     vdW  Elec       q    Type
REMARK                         _______ _______ _______ _____ _____    ______ ____
ROOT
ATOM      1  C   UNL     1     -11.182  14.144  66.382  0.00  0.00    +0.155 C 
ATOM      2  C   UNL     1     -12.330  13.615  65.689  0.00  0.00    +0.241 C 
ATOM      3  O   UNL     1     -13.319  14.345  65.368  0.00  0.00    -0.274 OA
ATOM      4  N   UNL     1     -11.914  12.692  64.664  0.00  0.00    -0.210 N 
ATOM      5  C   UNL     1     -12.927  11.953  63.927  0.00  0.00    +0.124 C 
ATOM      6  C   UNL     1     -10.556  12.663  64.184  0.00  0.00    +0.336 C 
ATOM      7  O   UNL     1     -10.121  11.760  63.443  0.00  0.00    -0.250 OA
ATOM      8  N   UNL     1      -9.886  13.916  64.415  0.00  0.00    -0.127 NA
ATOM      9  C   UNL     1     -10.385  14.856  65.396  0.00  0.00    +0.258 C 
ATOM     10  O   UNL     1     -10.672  15.975  64.864  0.00  0.00    -0.272 OA
ENDROOT
BRANCH   1  11
ATOM     11  C   UNL     1     -11.558  15.058  67.653  0.00  0.00    +0.081 C 
ATOM     12  C   UNL     1     -10.028  15.069  68.258  0.00  0.00    +0.015 C 
BRANCH  11  13
ATOM     13  C   UNL     1     -11.997  13.849  68.592  0.00  0.00    -0.091 C 
ATOM     14  C   UNL     1     -12.362  13.840  69.759  0.00  0.00    -0.091 C 
BRANCH  14  15
ATOM     15  C   UNL     1     -12.576  13.511  71.175  0.00  0.00    +0.076 C 
ATOM     16  C   UNL     1     -13.716  14.352  71.687  0.00  0.00    +0.015 C 
ENDBRANCH  14  15
ENDBRANCH  11  13
ENDBRANCH   1  11
BRANCH   1  17
ATOM     17  C   UNL     1     -10.348  13.054  67.007  0.00  0.00    +0.044 C 
BRANCH  17  19
ATOM     18  C   UNL     1     -10.762  10.764  67.375  0.00  0.00    -0.005 C 
ATOM     19  C   UNL     1     -11.053  11.769  67.160  0.00  0.00    -0.025 C 
ENDBRANCH  17  19
ENDBRANCH   1  17
TORSDOF 5
ENDMDL
MODEL 4
REMARK VINA RESULT:      -5.3      3.748      5.646
REMARK  Name = 
REMARK  5 active torsions:
REMARK  status: ('A' for Active; 'I' for Inactive)
REMARK    1  A    between atoms: C_2  and  C_3
REMARK    2  A    between atoms: C_3  and  C_4
REMARK    3  A    between atoms: C_4  and  C_5
REMARK    4  A    between atoms: C_5  and  C_7
REMARK    5  A    between atoms: C_8  and  C_9
REMARK                            x       y       z     vdW  Elec       q    Type
REMARK                         _______ _______ _______ _____ _____    ______ ____
ROOT
ATOM      1  C   UNL     1     -10.070  16.086  67.818  0.00  0.00    +0.155 C 
ATOM      2  C   UNL     1      -8.851  16.697  68.287  0.00  0.00    +0.241 C 
ATOM      3  O   UNL     1      -7.707  16.271  67.936  0.00  0.00    -0.274 OA
ATOM      4  N   UNL     1      -8.979  18.131  68.290  0.00  0.00    -0.210 N 
ATOM      5  C   UNL     1      -7.900  18.934  68.845  0.00  0.00    +0.124 C 
ATOM      6  C   UNL     1     -10.018  18.796  67.546  0.00  0.00    +0.336 C 
ATOM      7  O   UNL     1     -10.272  20.009  67.676  0.00  0.00    -0.250 OA
ATOM      8  N   UNL     1     -10.498  17.978  66.462  0.00  0.00    -0.127 NA
ATOM      9  C   UNL     1     -10.275  16.548  66.453  0.00  0.00    +0.258 C 
ATOM     10  O   UNL     1      -9.612  16.187  65.430  0.00  0.00    -0.272 OA
ENDROOT
BRANCH   1  11
ATOM     11  C   UNL     1     -10.078  14.481  67.936  0.00  0.00    +0.081 C 
ATOM     12  C   UNL     1      -9.276  14.246  66.518  0.00  0.00    +0.015 C 
BRANCH  11  13
ATOM     13  C   UNL     1     -11.500  14.280  67.249  0.00  0.00    -0.091 C 
ATOM     14  C   UNL     1     -11.872  13.465  66.416  0.00  0.00    -0.091 C 
BRANCH  14  15
ATOM     15  C   UNL     1     -12.504  12.798  65.269  0.00  0.00    +0.076 C 
ATOM     16  C   UNL     1     -12.004  13.455  64.009  0.00  0.00    +0.015 C 
ENDBRANCH  14  15
ENDBRANCH  11  13
ENDBRANCH   1  11
BRANCH   1  17
ATOM     17  C   UNL     1     -11.258  16.476  68.661  0.00  0.00    +0.044 C 
BRANCH  17  19
ATOM     18  C   UNL     1     -11.780  15.908  70.887  0.00  0.00    -0.005 C 
ATOM     19  C   UNL     1     -11.111  16.156  70.093  0.00  0.00    -0.025 C 
ENDBRANCH  17  19
ENDBRANCH   1  17
TORSDOF 5
ENDMDL
MODEL 5
REMARK VINA RESULT:      -5.2      3.598      5.597
REMARK  Name = 
REMARK  5 active torsions:
REMARK  status: ('A' for Active; 'I' for Inactive)
REMARK    1  A    between atoms: C_2  and  C_3
REMARK    2  A    between atoms: C_3  and  C_4
REMARK    3  A    between atoms: C_4  and  C_5
REMARK    4  A    between atoms: C_5  and  C_7
REMARK    5  A    between atoms: C_8  and  C_9
REMARK                            x       y       z     vdW  Elec       q    Type
REMARK                         _______ _______ _______ _____ _____    ______ ____
ROOT
ATOM      1  C   UNL     1      -9.427  17.002  66.729  0.00  0.00    +0.155 C 
ATOM      2  C   UNL     1     -10.363  17.148  67.816  0.00  0.00    +0.241 C 
ATOM      3  O   UNL     1     -11.084  18.185  67.949  0.00  0.00    -0.274 OA
ATOM      4  N   UNL     1     -11.055  15.907  68.050  0.00  0.00    -0.210 N 
ATOM      5  C   UNL     1     -11.959  15.806  69.185  0.00  0.00    +0.124 C 
ATOM      6  C   UNL     1     -11.071  14.857  67.064  0.00  0.00    +0.336 C 
ATOM      7  O   UNL     1     -11.495  13.709  67.305  0.00  0.00    -0.250 OA
ATOM      8  N   UNL     1     -10.826  15.369  65.741  0.00  0.00    -0.127 NA
ATOM      9  C   UNL     1     -10.204  16.661  65.547  0.00  0.00    +0.258 C 
ATOM     10  O   UNL     1     -10.957  17.447  64.891  0.00  0.00    -0.272 OA
ENDROOT
BRANCH   1  11
ATOM     11  C   UNL     1      -8.490  18.292  66.504  0.00  0.00    +0.081 C 
ATOM     12  C   UNL     1      -7.183  17.415  66.022  0.00  0.00    +0.015 C 
BRANCH  11  13
ATOM     13  C   UNL     1      -7.971  18.372  68.008  0.00  0.00    -0.091 C 
ATOM     14  C   UNL     1      -7.339  19.245  68.585  0.00  0.00    -0.091 C 
BRANCH  14  15
ATOM     15  C   UNL     1      -6.392  19.987  69.430  0.00  0.00    +0.076 C 
ATOM     16  C   UNL     1      -5.561  20.873  68.540  0.00  0.00    +0.015 C 
ENDBRANCH  14  15
ENDBRANCH  11  13
ENDBRANCH   1  11
BRANCH   1  17
ATOM     17  C   UNL     1      -8.418  15.914  66.995  0.00  0.00    +0.044 C 
BRANCH  17  19
ATOM     18  C   UNL     1      -7.707  14.844  68.970  0.00  0.00    -0.005 C 
ATOM     19  C   UNL     1      -8.259  15.575  68.421  0.00  0.00    -0.025 C 
ENDBRANCH  17  19
ENDBRANCH   1  17
TORSDOF 5
ENDMDL
MODEL 6
REMARK VINA RESULT:      -5.2      4.023      5.727
REMARK  Name = 
REMARK  5 active torsions:
REMARK  status: ('A' for Active; 'I' for Inactive)
REMARK    1  A    between atoms: C_2  and  C_3
REMARK    2  A    between atoms: C_3  and  C_4
REMARK    3  A    between atoms: C_4  and  C_5
REMARK    4  A    between atoms: C_5  and  C_7
REMARK    5  A    between atoms: C_8  and  C_9
REMARK                            x       y       z     vdW  Elec       q    Type
REMARK                         _______ _______ _______ _____ _____    ______ ____
ROOT
ATOM      1  C   UNL     1      -9.401  17.285  67.503  0.00  0.00    +0.155 C 
ATOM      2  C   UNL     1     -10.423  16.384  67.976  0.00  0.00    +0.241 C 
ATOM      3  O   UNL     1     -11.326  16.758  68.786  0.00  0.00    -0.274 OA
ATOM      4  N   UNL     1     -10.895  15.555  66.897  0.00  0.00    -0.210 N 
ATOM      5  C   UNL     1     -11.844  14.492  67.189  0.00  0.00    +0.124 C 
ATOM      6  C   UNL     1     -10.650  15.899  65.520  0.00  0.00    +0.336 C 
ATOM      7  O   UNL     1     -10.877  15.115  64.577  0.00  0.00    -0.250 OA
ATOM      8  N   UNL     1     -10.408  17.309  65.362  0.00  0.00    -0.127 NA
ATOM      9  C   UNL     1     -10.016  18.128  66.489  0.00  0.00    +0.258 C 
ATOM     10  O   UNL     1     -10.851  19.065  66.697  0.00  0.00    -0.272 OA
ENDROOT
BRANCH   1  11
ATOM     11  C   UNL     1      -8.698  18.138  68.674  0.00  0.00    +0.081 C 
ATOM     12  C   UNL     1      -9.791  19.366  68.610  0.00  0.00    +0.015 C 
BRANCH  11  13
ATOM     13  C   UNL     1      -7.676  18.901  67.720  0.00  0.00    -0.091 C 
ATOM     14  C   UNL     1      -6.807  19.721  67.980  0.00  0.00    -0.091 C 
BRANCH  14  15
ATOM     15  C   UNL     1      -5.899  20.877  67.968  0.00  0.00    +0.076 C 
ATOM     16  C   UNL     1      -5.189  20.932  69.296  0.00  0.00    +0.015 C 
ENDBRANCH  14  15
ENDBRANCH  11  13
ENDBRANCH   1  11
BRANCH   1  17
ATOM     17  C   UNL     1      -8.233  16.548  66.898  0.00  0.00    +0.044 C 
BRANCH  17  19
ATOM     18  C   UNL     1      -6.849  14.819  67.703  0.00  0.00    -0.005 C 
ATOM     19  C   UNL     1      -7.687  15.480  67.755  0.00  0.00    -0.025 C 
ENDBRANCH  17  19
ENDBRANCH   1  17
TORSDOF 5
ENDMDL
MODEL 7
REMARK VINA RESULT:      -5.2      1.454      2.609
REMARK  Name = 
REMARK  5 active torsions:
REMARK  status: ('A' for Active; 'I' for Inactive)
REMARK    1  A    between atoms: C_2  and  C_3
REMARK    2  A    between atoms: C_3  and  C_4
REMARK    3  A    between atoms: C_4  and  C_5
REMARK    4  A    between atoms: C_5  and  C_7
REMARK    5  A    between atoms: C_8  and  C_9
REMARK                            x       y       z     vdW  Elec       q    Type
REMARK                         _______ _______ _______ _____ _____    ______ ____
ROOT
ATOM      1  C   UNL     1     -11.218  13.085  66.425  0.00  0.00    +0.155 C 
ATOM      2  C   UNL     1     -11.154  11.853  67.170  0.00  0.00    +0.241 C 
ATOM      3  O   UNL     1     -12.183  11.340  67.713  0.00  0.00    -0.274 OA
ATOM      4  N   UNL     1     -10.299  10.907  66.501  0.00  0.00    -0.210 N 
ATOM      5  C   UNL     1     -10.004   9.640  67.152  0.00  0.00    +0.124 C 
ATOM      6  C   UNL     1      -9.934  11.070  65.117  0.00  0.00    +0.336 C 
ATOM      7  O   UNL     1      -9.054  10.382  64.565  0.00  0.00    -0.250 OA
ATOM      8  N   UNL     1     -10.888  11.886  64.411  0.00  0.00    -0.127 NA
ATOM      9  C   UNL     1     -11.790  12.763  65.126  0.00  0.00    +0.258 C 
ATOM     10  O   UNL     1     -13.005  12.472  64.892  0.00  0.00    -0.272 OA
ENDROOT
BRANCH   1  11
ATOM     11  C   UNL     1     -12.019  14.259  67.181  0.00  0.00    +0.081 C 
ATOM     12  C   UNL     1     -10.995  15.449  66.687  0.00  0.00    +0.015 C 
BRANCH  11  13
ATOM     13  C   UNL     1     -11.266  14.090  68.574  0.00  0.00    -0.091 C 
ATOM     14  C   UNL     1     -11.444  14.649  69.647  0.00  0.00    -0.091 C 
BRANCH  14  15
ATOM     15  C   UNL     1     -11.268  15.323  70.941  0.00  0.00    +0.076 C 
ATOM     16  C   UNL     1     -12.629  15.710  71.460  0.00  0.00    +0.015 C 
ENDBRANCH  14  15
ENDBRANCH  11  13
ENDBRANCH   1  11
BRANCH   1  17
ATOM     17  C   UNL     1      -9.855  13.699  66.232  0.00  0.00    +0.044 C 
BRANCH  17  19
ATOM     18  C   UNL     1      -7.805  13.423  67.361  0.00  0.00    -0.005 C 
ATOM     19  C   UNL     1      -8.851  13.260  67.218  0.00  0.00    -0.025 C 
ENDBRANCH  17  19
ENDBRANCH   1  17
TORSDOF 5
ENDMDL
MODEL 8
REMARK VINA RESULT:      -5.2      2.049      3.318
REMARK  Name = 
REMARK  5 active torsions:
REMARK  status: ('A' for Active; 'I' for Inactive)
REMARK    1  A    between atoms: C_2  and  C_3
REMARK    2  A    between atoms: C_3  and  C_4
REMARK    3  A    between atoms: C_4  and  C_5
REMARK    4  A    between atoms: C_5  and  C_7
REMARK    5  A    between atoms: C_8  and  C_9
REMARK                            x       y       z     vdW  Elec       q    Type
REMARK                         _______ _______ _______ _____ _____    ______ ____
ROOT
ATOM      1  C   UNL     1     -10.842  12.576  67.587  0.00  0.00    +0.155 C 
ATOM      2  C   UNL     1     -10.161  13.656  66.917  0.00  0.00    +0.241 C 
ATOM      3  O   UNL     1      -8.977  13.532  66.474  0.00  0.00    -0.274 OA
ATOM      4  N   UNL     1     -11.063  14.340  66.027  0.00  0.00    -0.210 N 
ATOM      5  C   UNL     1     -10.604  15.539  65.344  0.00  0.00    +0.124 C 
ATOM      6  C   UNL     1     -12.304  13.741  65.607  0.00  0.00    +0.336 C 
ATOM      7  O   UNL     1     -13.186  14.375  64.995  0.00  0.00    -0.250 OA
ATOM      8  N   UNL     1     -12.262  12.306  65.713  0.00  0.00    -0.127 NA
ATOM      9  C   UNL     1     -11.284  11.650  66.555  0.00  0.00    +0.258 C 
ATOM     10  O   UNL     1     -10.543  10.865  65.883  0.00  0.00    -0.272 OA
ENDROOT
BRANCH   1  11
ATOM     11  C   UNL     1      -9.957  11.858  68.725  0.00  0.00    +0.081 C 
ATOM     12  C   UNL     1      -9.240  10.807  67.682  0.00  0.00    +0.015 C 
BRANCH  11  13
ATOM     13  C   UNL     1     -11.069  10.798  69.143  0.00  0.00    -0.091 C 
ATOM     14  C   UNL     1     -11.386  10.370  70.244  0.00  0.00    -0.091 C 
BRANCH  14  15
ATOM     15  C   UNL     1     -11.787   9.518  71.372  0.00  0.00    +0.076 C 
ATOM     16  C   UNL     1     -13.138   9.979  71.853  0.00  0.00    +0.015 C 
ENDBRANCH  14  15
ENDBRANCH  11  13
ENDBRANCH   1  11
BRANCH   1  17
ATOM     17  C   UNL     1     -12.037  13.060  68.368  0.00  0.00    +0.044 C 
BRANCH  17  19
ATOM     18  C   UNL     1     -12.140  14.370  70.324  0.00  0.00    -0.005 C 
ATOM     19  C   UNL     1     -11.718  14.077  69.387  0.00  0.00    -0.025 C 
ENDBRANCH  17  19
ENDBRANCH   1  17
TORSDOF 5
ENDMDL
MODEL 9
REMARK VINA RESULT:      -5.1      3.768      5.920
REMARK  Name = 
REMARK  5 active torsions:
REMARK  status: ('A' for Active; 'I' for Inactive)
REMARK    1  A    between atoms: C_2  and  C_3
REMARK    2  A    between atoms: C_3  and  C_4
REMARK    3  A    between atoms: C_4  and  C_5
REMARK    4  A    between atoms: C_5  and  C_7
REMARK    5  A    between atoms: C_8  and  C_9
REMARK                            x       y       z     vdW  Elec       q    Type
REMARK                         _______ _______ _______ _____ _____    ______ ____
ROOT
ATOM      1  C   UNL     1      -9.265  17.376  67.270  0.00  0.00    +0.155 C 
ATOM      2  C   UNL     1     -10.308  16.919  66.385  0.00  0.00    +0.241 C 
ATOM      3  O   UNL     1     -10.617  17.550  65.327  0.00  0.00    -0.274 OA
ATOM      4  N   UNL     1     -10.239  15.489  66.229  0.00  0.00    -0.210 N 
ATOM      5  C   UNL     1     -11.280  14.813  65.471  0.00  0.00    +0.124 C 
ATOM      6  C   UNL     1      -9.056  14.749  66.585  0.00  0.00    +0.336 C 
ATOM      7  O   UNL     1      -9.029  13.504  66.640  0.00  0.00    -0.250 OA
ATOM      8  N   UNL     1      -7.884  15.586  66.571  0.00  0.00    -0.127 NA
ATOM      9  C   UNL     1      -7.998  17.027  66.645  0.00  0.00    +0.258 C 
ATOM     10  O   UNL     1      -7.483  17.587  65.626  0.00  0.00    -0.272 OA
ENDROOT
BRANCH   1  11
ATOM     11  C   UNL     1      -9.364  18.942  67.634  0.00  0.00    +0.081 C 
ATOM     12  C   UNL     1      -8.534  19.434  66.301  0.00  0.00    +0.015 C 
BRANCH  11  13
ATOM     13  C   UNL     1      -8.060  18.974  68.546  0.00  0.00    -0.091 C 
ATOM     14  C   UNL     1      -7.188  19.825  68.658  0.00  0.00    -0.091 C 
BRANCH  14  15
ATOM     15  C   UNL     1      -5.908  20.533  68.800  0.00  0.00    +0.076 C 
ATOM     16  C   UNL     1      -5.649  21.295  67.526  0.00  0.00    +0.015 C 
ENDBRANCH  14  15
ENDBRANCH  11  13
ENDBRANCH   1  11
BRANCH   1  17
ATOM     17  C   UNL     1      -9.349  16.726  68.627  0.00  0.00    +0.044 C 
BRANCH  17  19
ATOM     18  C   UNL     1     -11.254  16.151  69.889  0.00  0.00    -0.005 C 
ATOM     19  C   UNL     1     -10.688  16.784  69.240  0.00  0.00    -0.025 C 
ENDBRANCH  17  19
ENDBRANCH   1  17
TORSDOF 5
ENDMDL
