MODEL 1
REMARK VINA RESULT:      -6.8      0.000      0.000
REMARK  Name = 
REMARK  4 active torsions:
REMARK  status: ('A' for Active; 'I' for Inactive)
REMARK    1  A    between atoms: C_2  and  C_5
REMARK    2  A    between atoms: C_7  and  C_8
REMARK    3  A    between atoms: C_12  and  N_13
REMARK    4  A    between atoms: C_14  and  C_16
REMARK                            x       y       z     vdW  Elec       q    Type
REMARK                         _______ _______ _______ _____ _____    ______ ____
ROOT
ATOM      1  C   UNL     1      -6.131  19.280  66.301  0.00  0.00    +0.016 A 
ATOM      2  C   UNL     1      -7.278  19.840  66.849  0.00  0.00    +0.193 A 
ATOM      3  O   UNL     1      -7.217  21.135  67.371  0.00  0.00    -0.287 OA
ATOM      4  C   UNL     1      -8.257  18.942  67.257  0.00  0.00    +0.058 A 
ATOM      5  C   UNL     1      -7.984  17.581  67.290  0.00  0.00    +0.073 A 
ATOM      6  C   UNL     1      -6.683  17.113  67.154  0.00  0.00    -0.008 A 
ATOM      7  C   UNL     1      -5.803  17.950  66.478  0.00  0.00    -0.004 A 
ENDROOT
BRANCH   1   9
ATOM      8  C   UNL     1      -4.187  19.377  64.771  0.00  0.00    +0.004 C 
ATOM      9  C   UNL     1      -5.279  20.182  65.465  0.00  0.00    +0.022 C 
ATOM     10  C   UNL     1      -4.646  21.238  66.328  0.00  0.00    +0.004 C 
ATOM     11  C   UNL     1      -6.135  20.775  64.357  0.00  0.00    +0.004 C 
ENDBRANCH   1   9
BRANCH   6  12
ATOM     12  C   UNL     1      -6.194  15.979  67.985  0.00  0.00    +0.020 C 
ATOM     13  C   UNL     1      -4.696  15.869  67.731  0.00  0.00    +0.004 C 
ATOM     14  C   UNL     1      -6.384  16.256  69.470  0.00  0.00    +0.004 C 
ATOM     15  C   UNL     1      -6.804  14.661  67.575  0.00  0.00    +0.004 C 
ENDBRANCH   6  12
BRANCH   5  16
ATOM     16  N   UNL     1      -8.983  16.618  67.548  0.00  0.00    -0.176 NA
ATOM     17  C   UNL     1     -10.071  16.405  66.642  0.00  0.00    +0.274 C 
ATOM     18  O   UNL     1      -9.835  16.659  65.423  0.00  0.00    -0.268 OA
BRANCH  17  19
ATOM     19  C   UNL     1     -11.137  15.443  66.954  0.00  0.00    +0.113 A 
ATOM     20  C   UNL     1     -11.632  15.391  68.252  0.00  0.00    +0.203 A 
ATOM     21  O   UNL     1     -11.662  16.459  68.927  0.00  0.00    -0.286 OA
ATOM     22  C   UNL     1     -12.101  14.188  68.769  0.00  0.00    +0.057 A 
ATOM     23  C   UNL     1     -11.884  13.007  68.069  0.00  0.00    +0.084 A 
ATOM     24  C   UNL     1     -11.452  11.846  68.697  0.00  0.00    +0.019 A 
ATOM     25  C   UNL     1     -11.678  11.768  70.065  0.00  0.00    +0.002 A 
ATOM     26  C   UNL     1     -12.334  12.797  70.729  0.00  0.00    +0.000 A 
ATOM     27  N   UNL     1     -11.794  13.160  66.724  0.00  0.00    -0.243 NA
ATOM     28  C   UNL     1     -12.259  14.052  70.143  0.00  0.00    +0.005 A 
ATOM     29  C   UNL     1     -11.362  14.319  66.169  0.00  0.00    +0.107 A 
ENDBRANCH  17  19
ENDBRANCH   5  16
TORSDOF 4
ENDMDL
MODEL 2
REMARK VINA RESULT:      -6.8      2.578      4.253
REMARK  Name = 
REMARK  4 active torsions:
REMARK  status: ('A' for Active; 'I' for Inactive)
REMARK    1  A    between atoms: C_2  and  C_5
REMARK    2  A    between atoms: C_7  and  C_8
REMARK    3  A    between atoms: C_12  and  N_13
REMARK    4  A    between atoms: C_14  and  C_16
REMARK                            x       y       z     vdW  Elec       q    Type
REMARK                         _______ _______ _______ _____ _____    ______ ____
ROOT
ATOM      1  C   UNL     1      -6.230  18.851  68.510  0.00  0.00    +0.016 A 
ATOM      2  C   UNL     1      -5.724  17.959  67.573  0.00  0.00    +0.193 A 
ATOM      3  O   UNL     1      -4.604  18.328  66.823  0.00  0.00    -0.287 OA
ATOM      4  C   UNL     1      -6.608  16.987  67.121  0.00  0.00    +0.058 A 
ATOM      5  C   UNL     1      -7.955  17.061  67.451  0.00  0.00    +0.073 A 
ATOM      6  C   UNL     1      -8.485  18.212  68.021  0.00  0.00    -0.008 A 
ATOM      7  C   UNL     1      -7.587  19.017  68.713  0.00  0.00    -0.004 A 
ENDROOT
BRANCH   1   9
ATOM      8  C   UNL     1      -5.863  20.067  70.635  0.00  0.00    +0.004 C 
ATOM      9  C   UNL     1      -5.229  19.601  69.330  0.00  0.00    +0.022 C 
ATOM     10  C   UNL     1      -4.728  20.795  68.566  0.00  0.00    +0.004 C 
ATOM     11  C   UNL     1      -4.108  18.651  69.722  0.00  0.00    +0.004 C 
ENDBRANCH   1   9
BRANCH   6  12
ATOM     12  C   UNL     1      -9.823  18.716  67.609  0.00  0.00    +0.020 C 
ATOM     13  C   UNL     1     -10.054  20.013  68.376  0.00  0.00    +0.004 C 
ATOM     14  C   UNL     1      -9.857  19.054  66.125  0.00  0.00    +0.004 C 
ATOM     15  C   UNL     1     -10.937  17.775  67.998  0.00  0.00    +0.004 C 
ENDBRANCH   6  12
BRANCH   5  16
ATOM     16  N   UNL     1      -8.863  16.025  67.149  0.00  0.00    -0.176 NA
ATOM     17  C   UNL     1      -8.997  14.875  67.992  0.00  0.00    +0.274 C 
ATOM     18  O   UNL     1      -8.734  15.054  69.219  0.00  0.00    -0.268 OA
BRANCH  17  19
ATOM     19  C   UNL     1      -9.902  13.775  67.632  0.00  0.00    +0.113 A 
ATOM     20  C   UNL     1      -9.432  12.770  66.794  0.00  0.00    +0.203 A 
ATOM     21  O   UNL     1      -8.210  12.457  66.857  0.00  0.00    -0.286 OA
ATOM     22  C   UNL     1     -10.308  12.120  65.931  0.00  0.00    +0.057 A 
ATOM     23  C   UNL     1     -11.596  12.612  65.759  0.00  0.00    +0.084 A 
ATOM     24  C   UNL     1     -12.181  12.728  64.503  0.00  0.00    +0.019 A 
ATOM     25  C   UNL     1     -11.639  11.935  63.500  0.00  0.00    +0.002 A 
ATOM     26  C   UNL     1     -10.596  11.062  63.780  0.00  0.00    +0.000 A 
ATOM     27  N   UNL     1     -12.094  13.271  66.834  0.00  0.00    -0.243 NA
ATOM     28  C   UNL     1      -9.797  11.386  64.867  0.00  0.00    +0.005 A 
ATOM     29  C   UNL     1     -11.282  13.905  67.716  0.00  0.00    +0.107 A 
ENDBRANCH  17  19
ENDBRANCH   5  16
TORSDOF 4
ENDMDL
MODEL 3
REMARK VINA RESULT:      -6.7      2.278      8.239
REMARK  Name = 
REMARK  4 active torsions:
REMARK  status: ('A' for Active; 'I' for Inactive)
REMARK    1  A    between atoms: C_2  and  C_5
REMARK    2  A    between atoms: C_7  and  C_8
REMARK    3  A    between atoms: C_12  and  N_13
REMARK    4  A    between atoms: C_14  and  C_16
REMARK                            x       y       z     vdW  Elec       q    Type
REMARK                         _______ _______ _______ _____ _____    ______ ____
ROOT
ATOM      1  C   UNL     1     -10.905  11.176  68.688  0.00  0.00    +0.016 A 
ATOM      2  C   UNL     1     -11.504  12.025  69.610  0.00  0.00    +0.193 A 
ATOM      3  O   UNL     1     -12.419  11.493  70.523  0.00  0.00    -0.287 OA
ATOM      4  C   UNL     1     -11.515  13.373  69.277  0.00  0.00    +0.058 A 
ATOM      5  C   UNL     1     -11.130  13.782  68.007  0.00  0.00    +0.073 A 
ATOM      6  C   UNL     1     -10.961  12.857  66.984  0.00  0.00    -0.008 A 
ATOM      7  C   UNL     1     -10.669  11.557  67.381  0.00  0.00    -0.004 A 
ENDROOT
BRANCH   1   9
ATOM      8  C   UNL     1     -11.467   9.328  70.236  0.00  0.00    +0.004 C 
ATOM      9  C   UNL     1     -10.480   9.833  69.191  0.00  0.00    +0.022 C 
ATOM     10  C   UNL     1      -9.110   9.923  69.803  0.00  0.00    +0.004 C 
ATOM     11  C   UNL     1     -10.538   8.839  68.042  0.00  0.00    +0.004 C 
ENDBRANCH   1   9
BRANCH   6  12
ATOM     12  C   UNL     1     -11.420  13.163  65.602  0.00  0.00    +0.020 C 
ATOM     13  C   UNL     1     -11.565  11.826  64.886  0.00  0.00    +0.004 C 
ATOM     14  C   UNL     1     -12.790  13.828  65.605  0.00  0.00    +0.004 C 
ATOM     15  C   UNL     1     -10.406  13.966  64.824  0.00  0.00    +0.004 C 
ENDBRANCH   6  12
BRANCH   5  16
ATOM     16  N   UNL     1     -10.977  15.142  67.666  0.00  0.00    -0.176 NA
ATOM     17  C   UNL     1      -9.809  15.882  68.039  0.00  0.00    +0.274 C 
ATOM     18  O   UNL     1      -8.742  15.209  68.161  0.00  0.00    -0.268 OA
BRANCH  17  19
ATOM     19  C   UNL     1      -9.692  17.314  67.731  0.00  0.00    +0.113 A 
ATOM     20  C   UNL     1      -8.919  17.703  66.642  0.00  0.00    +0.203 A 
ATOM     21  O   UNL     1      -8.862  16.935  65.641  0.00  0.00    -0.286 OA
ATOM     22  C   UNL     1      -8.253  18.923  66.665  0.00  0.00    +0.057 A 
ATOM     23  C   UNL     1      -8.191  19.652  67.847  0.00  0.00    +0.084 A 
ATOM     24  C   UNL     1      -7.015  20.247  68.287  0.00  0.00    +0.019 A 
ATOM     25  C   UNL     1      -6.046  20.479  67.320  0.00  0.00    +0.002 A 
ATOM     26  C   UNL     1      -6.288  20.154  65.991  0.00  0.00    +0.000 A 
ATOM     27  N   UNL     1      -9.240  19.455  68.684  0.00  0.00    -0.243 NA
ATOM     28  C   UNL     1      -7.222  19.154  65.763  0.00  0.00    +0.005 A 
ATOM     29  C   UNL     1      -9.936  18.291  68.688  0.00  0.00    +0.107 A 
ENDBRANCH  17  19
ENDBRANCH   5  16
TORSDOF 4
ENDMDL
MODEL 4
REMARK VINA RESULT:      -6.7      2.657      4.871
REMARK  Name = 
REMARK  4 active torsions:
REMARK  status: ('A' for Active; 'I' for Inactive)
REMARK    1  A    between atoms: C_2  and  C_5
REMARK    2  A    between atoms: C_7  and  C_8
REMARK    3  A    between atoms: C_12  and  N_13
REMARK    4  A    between atoms: C_14  and  C_16
REMARK                            x       y       z     vdW  Elec       q    Type
REMARK                         _______ _______ _______ _____ _____    ______ ____
ROOT
ATOM      1  C   UNL     1      -9.132  17.295  66.824  0.00  0.00    +0.016 A 
ATOM      2  C   UNL     1      -7.910  16.637  66.889  0.00  0.00    +0.193 A 
ATOM      3  O   UNL     1      -6.766  17.286  66.416  0.00  0.00    -0.287 OA
ATOM      4  C   UNL     1      -7.970  15.252  66.979  0.00  0.00    +0.058 A 
ATOM      5  C   UNL     1      -9.180  14.593  66.804  0.00  0.00    +0.073 A 
ATOM      6  C   UNL     1     -10.289  15.265  66.305  0.00  0.00    -0.008 A 
ATOM      7  C   UNL     1     -10.304  16.641  66.497  0.00  0.00    -0.004 A 
ENDROOT
BRANCH   1   9
ATOM      8  C   UNL     1      -8.415  19.547  66.086  0.00  0.00    +0.004 C 
ATOM      9  C   UNL     1      -9.128  18.749  67.172  0.00  0.00    +0.022 C 
ATOM     10  C   UNL     1      -8.429  18.963  68.485  0.00  0.00    +0.004 C 
ATOM     11  C   UNL     1     -10.563  19.252  67.189  0.00  0.00    +0.004 C 
ENDBRANCH   1   9
BRANCH   6  12
ATOM     12  C   UNL     1     -11.198  14.606  65.328  0.00  0.00    +0.020 C 
ATOM     13  C   UNL     1     -11.687  15.698  64.384  0.00  0.00    +0.004 C 
ATOM     14  C   UNL     1     -10.456  13.577  64.485  0.00  0.00    +0.004 C 
ATOM     15  C   UNL     1     -12.421  14.018  65.985  0.00  0.00    +0.004 C 
ENDBRANCH   6  12
BRANCH   5  16
ATOM     16  N   UNL     1      -9.325  13.209  67.035  0.00  0.00    -0.176 NA
ATOM     17  C   UNL     1      -9.726  12.699  68.312  0.00  0.00    +0.274 C 
ATOM     18  O   UNL     1     -10.454  13.466  69.010  0.00  0.00    -0.268 OA
BRANCH  17  19
ATOM     19  C   UNL     1      -9.813  11.253  68.555  0.00  0.00    +0.113 A 
ATOM     20  C   UNL     1     -11.006  10.725  69.035  0.00  0.00    +0.203 A 
ATOM     21  O   UNL     1     -12.089  11.274  68.687  0.00  0.00    -0.286 OA
ATOM     22  C   UNL     1     -10.988   9.606  69.859  0.00  0.00    +0.057 A 
ATOM     23  C   UNL     1      -9.779   9.144  70.367  0.00  0.00    +0.084 A 
ATOM     24  C   UNL     1      -9.632   8.768  71.696  0.00  0.00    +0.019 A 
ATOM     25  C   UNL     1     -10.799   8.438  72.372  0.00  0.00    +0.002 A 
ATOM     26  C   UNL     1     -12.022   8.459  71.715  0.00  0.00    +0.000 A 
ATOM     27  N   UNL     1      -8.704   9.406  69.582  0.00  0.00    -0.243 NA
ATOM     28  C   UNL     1     -12.113   9.296  70.613  0.00  0.00    +0.005 A 
ATOM     29  C   UNL     1      -8.679  10.473  68.747  0.00  0.00    +0.107 A 
ENDBRANCH  17  19
ENDBRANCH   5  16
TORSDOF 4
ENDMDL
MODEL 5
REMARK VINA RESULT:      -6.6      3.191      4.799
REMARK  Name = 
REMARK  4 active torsions:
REMARK  status: ('A' for Active; 'I' for Inactive)
REMARK    1  A    between atoms: C_2  and  C_5
REMARK    2  A    between atoms: C_7  and  C_8
REMARK    3  A    between atoms: C_12  and  N_13
REMARK    4  A    between atoms: C_14  and  C_16
REMARK                            x       y       z     vdW  Elec       q    Type
REMARK                         _______ _______ _______ _____ _____    ______ ____
ROOT
ATOM      1  C   UNL     1      -9.553  18.040  67.166  0.00  0.00    +0.016 A 
ATOM      2  C   UNL     1     -10.105  17.914  65.898  0.00  0.00    +0.193 A 
ATOM      3  O   UNL     1     -10.915  18.942  65.407  0.00  0.00    -0.287 OA
ATOM      4  C   UNL     1     -10.202  16.619  65.403  0.00  0.00    +0.058 A 
ATOM      5  C   UNL     1      -9.945  15.535  66.232  0.00  0.00    +0.073 A 
ATOM      6  C   UNL     1      -9.828  15.703  67.607  0.00  0.00    -0.008 A 
ATOM      7  C   UNL     1      -9.448  16.970  68.034  0.00  0.00    -0.004 A 
ENDROOT
BRANCH   1   9
ATOM      8  C   UNL     1      -8.223  19.977  66.386  0.00  0.00    +0.004 C 
ATOM      9  C   UNL     1      -9.031  19.391  67.538  0.00  0.00    +0.022 C 
ATOM     10  C   UNL     1      -8.156  19.287  68.756  0.00  0.00    +0.004 C 
ATOM     11  C   UNL     1     -10.207  20.331  67.747  0.00  0.00    +0.004 C 
ENDBRANCH   1   9
BRANCH   6  12
ATOM     12  C   UNL     1     -10.417  14.710  68.545  0.00  0.00    +0.020 C 
ATOM     13  C   UNL     1     -10.316  15.317  69.940  0.00  0.00    +0.004 C 
ATOM     14  C   UNL     1     -11.894  14.480  68.257  0.00  0.00    +0.004 C 
ATOM     15  C   UNL     1      -9.641  13.416  68.575  0.00  0.00    +0.004 C 
ENDBRANCH   6  12
BRANCH   5  16
ATOM     16  N   UNL     1      -9.880  14.212  65.746  0.00  0.00    -0.176 NA
ATOM     17  C   UNL     1     -10.993  13.602  65.083  0.00  0.00    +0.274 C 
ATOM     18  O   UNL     1     -11.774  14.390  64.470  0.00  0.00    -0.268 OA
BRANCH  17  19
ATOM     19  C   UNL     1     -10.932  12.203  64.637  0.00  0.00    +0.113 A 
ATOM     20  C   UNL     1     -10.973  11.194  65.593  0.00  0.00    +0.203 A 
ATOM     21  O   UNL     1     -11.642  11.390  66.645  0.00  0.00    -0.286 OA
ATOM     22  C   UNL     1     -10.305   9.995  65.365  0.00  0.00    +0.057 A 
ATOM     23  C   UNL     1      -9.434   9.886  64.288  0.00  0.00    +0.084 A 
ATOM     24  C   UNL     1      -8.183   9.293  64.406  0.00  0.00    +0.019 A 
ATOM     25  C   UNL     1      -8.015   8.427  65.479  0.00  0.00    +0.002 A 
ATOM     26  C   UNL     1      -9.070   8.165  66.343  0.00  0.00    +0.000 A 
ATOM     27  N   UNL     1      -9.742  10.682  63.234  0.00  0.00    -0.243 NA
ATOM     28  C   UNL     1     -10.048   9.145  66.434  0.00  0.00    +0.005 A 
ATOM     29  C   UNL     1     -10.409  11.851  63.399  0.00  0.00    +0.107 A 
ENDBRANCH  17  19
ENDBRANCH   5  16
TORSDOF 4
ENDMDL
MODEL 6
REMARK VINA RESULT:      -6.6      3.171      8.478
REMARK  Name = 
REMARK  4 active torsions:
REMARK  status: ('A' for Active; 'I' for Inactive)
REMARK    1  A    between atoms: C_2  and  C_5
REMARK    2  A    between atoms: C_7  and  C_8
REMARK    3  A    between atoms: C_12  and  N_13
REMARK    4  A    between atoms: C_14  and  C_16
REMARK                            x       y       z     vdW  Elec       q    Type
REMARK                         _______ _______ _______ _____ _____    ______ ____
ROOT
ATOM      1  C   UNL     1     -11.016   9.800  69.875  0.00  0.00    +0.016 A 
ATOM      2  C   UNL     1     -11.908  10.848  70.065  0.00  0.00    +0.193 A 
ATOM      3  O   UNL     1     -13.184  10.569  70.563  0.00  0.00    -0.287 OA
ATOM      4  C   UNL     1     -11.653  12.001  69.334  0.00  0.00    +0.058 A 
ATOM      5  C   UNL     1     -10.686  11.996  68.337  0.00  0.00    +0.073 A 
ATOM      6  C   UNL     1     -10.132  10.803  67.890  0.00  0.00    -0.008 A 
ATOM      7  C   UNL     1     -10.165   9.743  68.788  0.00  0.00    -0.004 A 
ENDROOT
BRANCH   1   9
ATOM      8  C   UNL     1      -9.634   8.747  71.640  0.00  0.00    +0.004 C 
ATOM      9  C   UNL     1     -10.986   8.746  70.937  0.00  0.00    +0.022 C 
ATOM     10  C   UNL     1     -11.227   7.393  70.326  0.00  0.00    +0.004 C 
ATOM     11  C   UNL     1     -12.014   9.093  72.001  0.00  0.00    +0.004 C 
ENDBRANCH   1   9
BRANCH   6  12
ATOM     12  C   UNL     1      -9.863  10.587  66.442  0.00  0.00    +0.020 C 
ATOM     13  C   UNL     1     -10.067   9.100  66.179  0.00  0.00    +0.004 C 
ATOM     14  C   UNL     1     -10.859  11.342  65.573  0.00  0.00    +0.004 C 
ATOM     15  C   UNL     1      -8.436  10.904  66.069  0.00  0.00    +0.004 C 
ENDBRANCH   6  12
BRANCH   5  16
ATOM     16  N   UNL     1     -10.282  13.173  67.672  0.00  0.00    -0.176 NA
ATOM     17  C   UNL     1      -9.125  13.909  68.085  0.00  0.00    +0.274 C 
ATOM     18  O   UNL     1      -8.209  13.233  68.641  0.00  0.00    -0.268 OA
BRANCH  17  19
ATOM     19  C   UNL     1      -8.753  15.166  67.422  0.00  0.00    +0.113 A 
ATOM     20  C   UNL     1      -8.549  16.299  68.202  0.00  0.00    +0.203 A 
ATOM     21  O   UNL     1      -8.081  16.150  69.366  0.00  0.00    -0.286 OA
ATOM     22  C   UNL     1      -8.835  17.558  67.686  0.00  0.00    +0.057 A 
ATOM     23  C   UNL     1      -9.516  17.669  66.479  0.00  0.00    +0.084 A 
ATOM     24  C   UNL     1     -10.563  18.564  66.302  0.00  0.00    +0.019 A 
ATOM     25  C   UNL     1     -10.610  19.635  67.185  0.00  0.00    +0.002 A 
ATOM     26  C   UNL     1      -9.629  19.790  68.156  0.00  0.00    +0.000 A 
ATOM     27  N   UNL     1      -9.318  16.633  65.626  0.00  0.00    -0.243 NA
ATOM     28  C   UNL     1      -8.971  18.635  68.554  0.00  0.00    +0.005 A 
ATOM     29  C   UNL     1      -9.017  15.391  66.076  0.00  0.00    +0.107 A 
ENDBRANCH  17  19
ENDBRANCH   5  16
TORSDOF 4
ENDMDL
MODEL 7
REMARK VINA RESULT:      -6.4      6.347      9.874
REMARK  Name = 
REMARK  4 active torsions:
REMARK  status: ('A' for Active; 'I' for Inactive)
REMARK    1  A    between atoms: C_2  and  C_5
REMARK    2  A    between atoms: C_7  and  C_8
REMARK    3  A    between atoms: C_12  and  N_13
REMARK    4  A    between atoms: C_14  and  C_16
REMARK                            x       y       z     vdW  Elec       q    Type
REMARK                         _______ _______ _______ _____ _____    ______ ____
ROOT
ATOM      1  C   UNL     1      -7.848   6.783  69.971  0.00  0.00    +0.016 A 
ATOM      2  C   UNL     1      -7.320   8.002  70.378  0.00  0.00    +0.193 A 
ATOM      3  O   UNL     1      -5.989   8.056  70.801  0.00  0.00    -0.287 OA
ATOM      4  C   UNL     1      -8.243   8.962  70.772  0.00  0.00    +0.058 A 
ATOM      5  C   UNL     1      -9.580   8.621  70.933  0.00  0.00    +0.073 A 
ATOM      6  C   UNL     1      -9.977   7.289  70.941  0.00  0.00    -0.008 A 
ATOM      7  C   UNL     1      -9.140   6.401  70.276  0.00  0.00    -0.004 A 
ENDROOT
BRANCH   1   9
ATOM      8  C   UNL     1      -7.794   4.899  68.366  0.00  0.00    +0.004 C 
ATOM      9  C   UNL     1      -6.960   5.912  69.141  0.00  0.00    +0.022 C 
ATOM     10  C   UNL     1      -5.984   5.183  70.022  0.00  0.00    +0.004 C 
ATOM     11  C   UNL     1      -6.268   6.773  68.096  0.00  0.00    +0.004 C 
ENDBRANCH   1   9
BRANCH   6  12
ATOM     12  C   UNL     1     -11.017   6.814  71.894  0.00  0.00    +0.020 C 
ATOM     13  C   UNL     1     -10.826   5.308  72.029  0.00  0.00    +0.004 C 
ATOM     14  C   UNL     1     -10.822   7.421  73.277  0.00  0.00    +0.004 C 
ATOM     15  C   UNL     1     -12.416   7.032  71.376  0.00  0.00    +0.004 C 
ENDBRANCH   6  12
BRANCH   5  16
ATOM     16  N   UNL     1     -10.580   9.584  71.182  0.00  0.00    -0.176 NA
ATOM     17  C   UNL     1     -11.152  10.362  70.124  0.00  0.00    +0.274 C 
ATOM     18  O   UNL     1     -11.169   9.815  68.981  0.00  0.00    -0.268 OA
BRANCH  17  19
ATOM     19  C   UNL     1     -12.148  11.405  70.406  0.00  0.00    +0.113 A 
ATOM     20  C   UNL     1     -11.895  12.704  69.979  0.00  0.00    +0.203 A 
ATOM     21  O   UNL     1     -11.236  12.869  68.915  0.00  0.00    -0.286 OA
ATOM     22  C   UNL     1     -12.385  13.782  70.708  0.00  0.00    +0.057 A 
ATOM     23  C   UNL     1     -12.944  13.567  71.963  0.00  0.00    +0.084 A 
ATOM     24  C   UNL     1     -12.645  14.376  73.052  0.00  0.00    +0.019 A 
ATOM     25  C   UNL     1     -12.150  15.640  72.759  0.00  0.00    +0.002 A 
ATOM     26  C   UNL     1     -12.009  16.052  71.440  0.00  0.00    +0.000 A 
ATOM     27  N   UNL     1     -13.512  12.346  72.123  0.00  0.00    -0.243 NA
ATOM     28  C   UNL     1     -11.851  15.047  70.496  0.00  0.00    +0.005 A 
ATOM     29  C   UNL     1     -13.085  11.267  71.423  0.00  0.00    +0.107 A 
ENDBRANCH  17  19
ENDBRANCH   5  16
TORSDOF 4
ENDMDL
MODEL 8
REMARK VINA RESULT:      -6.4      1.153      1.663
REMARK  Name = 
REMARK  4 active torsions:
REMARK  status: ('A' for Active; 'I' for Inactive)
REMARK    1  A    between atoms: C_2  and  C_5
REMARK    2  A    between atoms: C_7  and  C_8
REMARK    3  A    between atoms: C_12  and  N_13
REMARK    4  A    between atoms: C_14  and  C_16
REMARK                            x       y       z     vdW  Elec       q    Type
REMARK                         _______ _______ _______ _____ _____    ______ ____
ROOT
ATOM      1  C   UNL     1      -6.572  18.942  66.279  0.00  0.00    +0.016 A 
ATOM      2  C   UNL     1      -7.922  19.213  66.466  0.00  0.00    +0.193 A 
ATOM      3  O   UNL     1      -8.298  20.466  66.958  0.00  0.00    -0.287 OA
ATOM      4  C   UNL     1      -8.752  18.107  66.595  0.00  0.00    +0.058 A 
ATOM      5  C   UNL     1      -8.206  16.837  66.730  0.00  0.00    +0.073 A 
ATOM      6  C   UNL     1      -6.849  16.670  66.980  0.00  0.00    -0.008 A 
ATOM      7  C   UNL     1      -6.022  17.708  66.567  0.00  0.00    -0.004 A 
ENDROOT
BRANCH   1   9
ATOM      8  C   UNL     1      -5.598  21.176  66.714  0.00  0.00    +0.004 C 
ATOM      9  C   UNL     1      -5.741  20.044  65.704  0.00  0.00    +0.022 C 
ATOM     10  C   UNL     1      -6.383  20.573  64.452  0.00  0.00    +0.004 C 
ATOM     11  C   UNL     1      -4.335  19.520  65.458  0.00  0.00    +0.004 C 
ENDBRANCH   1   9
BRANCH   6  12
ATOM     12  C   UNL     1      -6.377  15.633  67.938  0.00  0.00    +0.020 C 
ATOM     13  C   UNL     1      -4.859  15.755  67.998  0.00  0.00    +0.004 C 
ATOM     14  C   UNL     1      -6.909  15.889  69.342  0.00  0.00    +0.004 C 
ATOM     15  C   UNL     1      -6.684  14.233  67.467  0.00  0.00    +0.004 C 
ENDBRANCH   6  12
BRANCH   5  16
ATOM     16  N   UNL     1      -8.998  15.670  66.711  0.00  0.00    -0.176 NA
ATOM     17  C   UNL     1     -10.225  15.608  65.975  0.00  0.00    +0.274 C 
ATOM     18  O   UNL     1     -10.297  16.354  64.954  0.00  0.00    -0.268 OA
BRANCH  17  19
ATOM     19  C   UNL     1     -11.070  14.407  66.015  0.00  0.00    +0.113 A 
ATOM     20  C   UNL     1     -11.552  13.968  67.244  0.00  0.00    +0.203 A 
ATOM     21  O   UNL     1     -11.806  14.830  68.132  0.00  0.00    -0.286 OA
ATOM     22  C   UNL     1     -11.764  12.611  67.462  0.00  0.00    +0.057 A 
ATOM     23  C   UNL     1     -11.304  11.685  66.534  0.00  0.00    +0.084 A 
ATOM     24  C   UNL     1     -10.644  10.523  66.916  0.00  0.00    +0.019 A 
ATOM     25  C   UNL     1     -10.857  10.098  68.220  0.00  0.00    +0.002 A 
ATOM     26  C   UNL     1     -11.716  10.800  69.057  0.00  0.00    +0.000 A 
ATOM     27  N   UNL     1     -11.240  12.149  65.261  0.00  0.00    -0.243 NA
ATOM     28  C   UNL     1     -11.899  12.143  68.763  0.00  0.00    +0.005 A 
ATOM     29  C   UNL     1     -11.053  13.465  64.994  0.00  0.00    +0.107 A 
ENDBRANCH  17  19
ENDBRANCH   5  16
TORSDOF 4
ENDMDL
MODEL 9
REMARK VINA RESULT:      -6.4      1.648      2.247
REMARK  Name = 
REMARK  4 active torsions:
REMARK  status: ('A' for Active; 'I' for Inactive)
REMARK    1  A    between atoms: C_2  and  C_5
REMARK    2  A    between atoms: C_7  and  C_8
REMARK    3  A    between atoms: C_12  and  N_13
REMARK    4  A    between atoms: C_14  and  C_16
REMARK                            x       y       z     vdW  Elec       q    Type
REMARK                         _______ _______ _______ _____ _____    ______ ____
ROOT
ATOM      1  C   UNL     1      -7.203  17.992  67.347  0.00  0.00    +0.016 A 
ATOM      2  C   UNL     1      -8.330  18.179  68.138  0.00  0.00    +0.193 A 
ATOM      3  O   UNL     1      -8.415  19.324  68.935  0.00  0.00    -0.287 OA
ATOM      4  C   UNL     1      -9.059  17.035  68.437  0.00  0.00    +0.058 A 
ATOM      5  C   UNL     1      -8.550  15.782  68.122  0.00  0.00    +0.073 A 
ATOM      6  C   UNL     1      -7.225  15.630  67.733  0.00  0.00    -0.008 A 
ATOM      7  C   UNL     1      -6.623  16.750  67.172  0.00  0.00    -0.004 A 
ENDROOT
BRANCH   1   9
ATOM      8  C   UNL     1      -5.705  18.785  65.543  0.00  0.00    +0.004 C 
ATOM      9  C   UNL     1      -6.666  19.201  66.650  0.00  0.00    +0.022 C 
ATOM     10  C   UNL     1      -5.942  20.081  67.631  0.00  0.00    +0.004 C 
ATOM     11  C   UNL     1      -7.814  19.921  65.962  0.00  0.00    +0.004 C 
ENDBRANCH   1   9
BRANCH   6  12
ATOM     12  C   UNL     1      -6.420  14.475  68.217  0.00  0.00    +0.020 C 
ATOM     13  C   UNL     1      -4.963  14.803  67.914  0.00  0.00    +0.004 C 
ATOM     14  C   UNL     1      -6.542  14.305  69.725  0.00  0.00    +0.004 C 
ATOM     15  C   UNL     1      -6.743  13.199  67.479  0.00  0.00    +0.004 C 
ENDBRANCH   6  12
BRANCH   5  16
ATOM     16  N   UNL     1      -9.311  14.602  68.263  0.00  0.00    -0.176 NA
ATOM     17  C   UNL     1     -10.498  14.378  67.494  0.00  0.00    +0.274 C 
ATOM     18  O   UNL     1     -10.536  14.941  66.359  0.00  0.00    -0.268 OA
BRANCH  17  19
ATOM     19  C   UNL     1     -11.313  13.173  67.696  0.00  0.00    +0.113 A 
ATOM     20  C   UNL     1     -11.848  12.931  68.957  0.00  0.00    +0.203 A 
ATOM     21  O   UNL     1     -12.169  13.921  69.674  0.00  0.00    -0.286 OA
ATOM     22  C   UNL     1     -12.038  11.624  69.391  0.00  0.00    +0.057 A 
ATOM     23  C   UNL     1     -11.506  10.571  68.657  0.00  0.00    +0.084 A 
ATOM     24  C   UNL     1     -10.839   9.512  69.261  0.00  0.00    +0.019 A 
ATOM     25  C   UNL     1     -11.110   9.305  70.607  0.00  0.00    +0.002 A 
ATOM     26  C   UNL     1     -12.028  10.109  71.271  0.00  0.00    +0.000 A 
ATOM     27  N   UNL     1     -11.387  10.816  67.328  0.00  0.00    -0.243 NA
ATOM     28  C   UNL     1     -12.228  11.377  70.745  0.00  0.00    +0.005 A 
ATOM     29  C   UNL     1     -11.220  12.074  66.852  0.00  0.00    +0.107 A 
ENDBRANCH  17  19
ENDBRANCH   5  16
TORSDOF 4
ENDMDL
