MODEL 1
REMARK VINA RESULT:      -4.4      0.000      0.000
REMARK  Name = 
REMARK  4 active torsions:
REMARK  status: ('A' for Active; 'I' for Inactive)
REMARK    1  A    between atoms: C_2  and  C_3
REMARK    2  A    between atoms: C_3  and  S_5
REMARK    3  A    between atoms: S_5  and  S_6
REMARK    4  A    between atoms: S_6  and  C_7
REMARK                            x       y       z     vdW  Elec       q    Type
REMARK                         _______ _______ _______ _____ _____    ______ ____
ROOT
ATOM      1  S   UNL     1     -11.832  12.616  69.607  0.00  0.00    -0.017 S 
ENDROOT
BRANCH   1   2
ATOM      2  C   UNL     1     -11.660  12.908  67.842  0.00  0.00    +0.200 A 
ATOM      3  N   UNL     1     -12.121  14.067  67.309  0.00  0.00    -0.217 NA
ATOM      4  C   UNL     1     -12.114  13.973  65.975  0.00  0.00    +0.122 A 
ATOM      5  C   UNL     1     -11.995  12.627  65.702  0.00  0.00    +0.122 A 
ATOM      6  N   UNL     1     -11.940  11.987  66.886  0.00  0.00    -0.217 NA
ENDBRANCH   1   2
BRANCH   1   7
ATOM      7  S   UNL     1     -12.383  14.339  70.673  0.00  0.00    -0.076 S 
BRANCH   7   8
ATOM      8  C   UNL     1     -13.610  13.870  72.052  0.00  0.00    +0.058 C 
ATOM      9  C   UNL     1     -14.712  14.941  71.649  0.00  0.00    +0.013 C 
BRANCH   8  11
ATOM     10  C   UNL     1     -13.255  15.774  73.179  0.00  0.00    +0.001 C 
ATOM     11  C   UNL     1     -12.925  14.782  73.159  0.00  0.00    +0.012 C 
ENDBRANCH   8  11
ENDBRANCH   7   8
ENDBRANCH   1   7
TORSDOF 4
ENDMDL
MODEL 2
REMARK VINA RESULT:      -4.4      5.196      6.896
REMARK  Name = 
REMARK  4 active torsions:
REMARK  status: ('A' for Active; 'I' for Inactive)
REMARK    1  A    between atoms: C_2  and  C_3
REMARK    2  A    between atoms: C_3  and  S_5
REMARK    3  A    between atoms: S_5  and  S_6
REMARK    4  A    between atoms: S_6  and  C_7
REMARK                            x       y       z     vdW  Elec       q    Type
REMARK                         _______ _______ _______ _____ _____    ______ ____
ROOT
ATOM      1  S   UNL     1     -10.609  15.629  66.924  0.00  0.00    -0.017 S 
ENDROOT
BRANCH   1   2
ATOM      2  C   UNL     1     -10.262  17.390  66.836  0.00  0.00    +0.200 A 
ATOM      3  N   UNL     1     -10.730  18.213  67.808  0.00  0.00    -0.217 NA
ATOM      4  C   UNL     1     -10.571  19.484  67.424  0.00  0.00    +0.122 A 
ATOM      5  C   UNL     1     -10.343  19.432  66.065  0.00  0.00    +0.122 A 
ATOM      6  N   UNL     1     -10.380  18.135  65.708  0.00  0.00    -0.217 NA
ENDBRANCH   1   2
BRANCH   1   7
ATOM      7  S   UNL     1     -10.778  14.731  65.033  0.00  0.00    -0.076 S 
BRANCH   7   8
ATOM      8  C   UNL     1     -12.352  13.659  64.976  0.00  0.00    +0.058 C 
ATOM      9  C   UNL     1     -11.803  12.527  65.946  0.00  0.00    +0.013 C 
BRANCH   8  11
ATOM     10  C   UNL     1     -12.450  11.997  63.476  0.00  0.00    +0.001 C 
ATOM     11  C   UNL     1     -11.952  12.902  63.637  0.00  0.00    +0.012 C 
ENDBRANCH   8  11
ENDBRANCH   7   8
ENDBRANCH   1   7
TORSDOF 4
ENDMDL
MODEL 3
REMARK VINA RESULT:      -4.2      2.601      3.002
REMARK  Name = 
REMARK  4 active torsions:
REMARK  status: ('A' for Active; 'I' for Inactive)
REMARK    1  A    between atoms: C_2  and  C_3
REMARK    2  A    between atoms: C_3  and  S_5
REMARK    3  A    between atoms: S_5  and  S_6
REMARK    4  A    between atoms: S_6  and  C_7
REMARK                            x       y       z     vdW  Elec       q    Type
REMARK                         _______ _______ _______ _____ _____    ______ ____
ROOT
ATOM      1  S   UNL     1     -11.647  14.892  68.989  0.00  0.00    -0.017 S 
ENDROOT
BRANCH   1   2
ATOM      2  C   UNL     1     -10.744  16.120  68.038  0.00  0.00    +0.200 A 
ATOM      3  N   UNL     1     -10.941  17.438  68.291  0.00  0.00    -0.217 NA
ATOM      4  C   UNL     1     -10.368  18.164  67.325  0.00  0.00    +0.122 A 
ATOM      5  C   UNL     1     -10.137  17.282  66.291  0.00  0.00    +0.122 A 
ATOM      6  N   UNL     1     -10.585  16.078  66.691  0.00  0.00    -0.217 NA
ENDBRANCH   1   2
BRANCH   1   7
ATOM      7  S   UNL     1     -12.344  15.629  70.827  0.00  0.00    -0.076 S 
BRANCH   7   8
ATOM      8  C   UNL     1     -13.332  14.271  71.724  0.00  0.00    +0.058 C 
ATOM      9  C   UNL     1     -14.732  15.020  71.645  0.00  0.00    +0.013 C 
BRANCH   8  11
ATOM     10  C   UNL     1     -13.082  15.818  73.326  0.00  0.00    +0.001 C 
ATOM     11  C   UNL     1     -12.979  14.787  73.186  0.00  0.00    +0.012 C 
ENDBRANCH   8  11
ENDBRANCH   7   8
ENDBRANCH   1   7
TORSDOF 4
ENDMDL
MODEL 4
REMARK VINA RESULT:      -4.2      2.615      6.187
REMARK  Name = 
REMARK  4 active torsions:
REMARK  status: ('A' for Active; 'I' for Inactive)
REMARK    1  A    between atoms: C_2  and  C_3
REMARK    2  A    between atoms: C_3  and  S_5
REMARK    3  A    between atoms: S_5  and  S_6
REMARK    4  A    between atoms: S_6  and  C_7
REMARK                            x       y       z     vdW  Elec       q    Type
REMARK                         _______ _______ _______ _____ _____    ______ ____
ROOT
ATOM      1  S   UNL     1     -11.785  15.736  69.412  0.00  0.00    -0.017 S 
ENDROOT
BRANCH   1   2
ATOM      2  C   UNL     1     -12.400  15.531  71.088  0.00  0.00    +0.200 A 
ATOM      3  N   UNL     1     -13.735  15.585  71.321  0.00  0.00    -0.217 NA
ATOM      4  C   UNL     1     -13.950  15.653  72.639  0.00  0.00    +0.122 A 
ATOM      5  C   UNL     1     -12.738  16.009  73.192  0.00  0.00    +0.122 A 
ATOM      6  N   UNL     1     -11.864  16.137  72.176  0.00  0.00    -0.217 NA
ENDBRANCH   1   2
BRANCH   1   7
ATOM      7  S   UNL     1     -11.605  13.917  68.377  0.00  0.00    -0.076 S 
BRANCH   7   8
ATOM      8  C   UNL     1     -12.104  14.169  66.556  0.00  0.00    +0.058 C 
ATOM      9  C   UNL     1     -11.850  12.663  66.117  0.00  0.00    +0.013 C 
BRANCH   8  11
ATOM     10  C   UNL     1     -10.670  15.215  65.189  0.00  0.00    +0.001 C 
ATOM     11  C   UNL     1     -10.676  14.692  66.094  0.00  0.00    +0.012 C 
ENDBRANCH   8  11
ENDBRANCH   7   8
ENDBRANCH   1   7
TORSDOF 4
ENDMDL
MODEL 5
REMARK VINA RESULT:      -4.1      1.467      2.256
REMARK  Name = 
REMARK  4 active torsions:
REMARK  status: ('A' for Active; 'I' for Inactive)
REMARK    1  A    between atoms: C_2  and  C_3
REMARK    2  A    between atoms: C_3  and  S_5
REMARK    3  A    between atoms: S_5  and  S_6
REMARK    4  A    between atoms: S_6  and  C_7
REMARK                            x       y       z     vdW  Elec       q    Type
REMARK                         _______ _______ _______ _____ _____    ______ ____
ROOT
ATOM      1  S   UNL     1     -11.784  15.636  69.532  0.00  0.00    -0.017 S 
ENDROOT
BRANCH   1   2
ATOM      2  C   UNL     1     -12.017  14.118  68.598  0.00  0.00    +0.200 A 
ATOM      3  N   UNL     1     -11.664  12.932  69.153  0.00  0.00    -0.217 NA
ATOM      4  C   UNL     1     -11.692  11.980  68.213  0.00  0.00    +0.122 A 
ATOM      5  C   UNL     1     -11.708  12.652  67.010  0.00  0.00    +0.122 A 
ATOM      6  N   UNL     1     -11.686  13.968  67.292  0.00  0.00    -0.217 NA
ENDBRANCH   1   2
BRANCH   1   7
ATOM      7  S   UNL     1     -11.504  15.298  71.586  0.00  0.00    -0.076 S 
BRANCH   7   8
ATOM      8  C   UNL     1     -13.046  15.877  72.543  0.00  0.00    +0.058 C 
ATOM      9  C   UNL     1     -12.591  15.281  73.944  0.00  0.00    +0.013 C 
BRANCH   8  11
ATOM     10  C   UNL     1     -14.847  14.857  71.685  0.00  0.00    +0.001 C 
ATOM     11  C   UNL     1     -13.935  14.623  72.139  0.00  0.00    +0.012 C 
ENDBRANCH   8  11
ENDBRANCH   7   8
ENDBRANCH   1   7
TORSDOF 4
ENDMDL
MODEL 6
REMARK VINA RESULT:      -4.0      1.612      1.937
REMARK  Name = 
REMARK  4 active torsions:
REMARK  status: ('A' for Active; 'I' for Inactive)
REMARK    1  A    between atoms: C_2  and  C_3
REMARK    2  A    between atoms: C_3  and  S_5
REMARK    3  A    between atoms: S_5  and  S_6
REMARK    4  A    between atoms: S_6  and  C_7
REMARK                            x       y       z     vdW  Elec       q    Type
REMARK                         _______ _______ _______ _____ _____    ______ ____
ROOT
ATOM      1  S   UNL     1     -11.145  15.983  69.602  0.00  0.00    -0.017 S 
ENDROOT
BRANCH   1   2
ATOM      2  C   UNL     1     -11.115  15.060  68.061  0.00  0.00    +0.200 A 
ATOM      3  N   UNL     1     -10.807  15.699  66.905  0.00  0.00    -0.217 NA
ATOM      4  C   UNL     1     -11.077  14.896  65.870  0.00  0.00    +0.122 A 
ATOM      5  C   UNL     1     -11.892  13.906  66.377  0.00  0.00    +0.122 A 
ATOM      6  N   UNL     1     -12.067  14.170  67.686  0.00  0.00    -0.217 NA
ENDBRANCH   1   2
BRANCH   1   7
ATOM      7  S   UNL     1     -12.828  15.552  70.782  0.00  0.00    -0.076 S 
BRANCH   7   8
ATOM      8  C   UNL     1     -12.283  14.622  72.352  0.00  0.00    +0.058 C 
ATOM      9  C   UNL     1     -13.558  13.676  72.421  0.00  0.00    +0.013 C 
BRANCH   8  11
ATOM     10  C   UNL     1     -12.492  15.640  74.337  0.00  0.00    +0.001 C 
ATOM     11  C   UNL     1     -12.859  15.707  73.360  0.00  0.00    +0.012 C 
ENDBRANCH   8  11
ENDBRANCH   7   8
ENDBRANCH   1   7
TORSDOF 4
ENDMDL
MODEL 7
REMARK VINA RESULT:      -3.9      5.119      6.662
REMARK  Name = 
REMARK  4 active torsions:
REMARK  status: ('A' for Active; 'I' for Inactive)
REMARK    1  A    between atoms: C_2  and  C_3
REMARK    2  A    between atoms: C_3  and  S_5
REMARK    3  A    between atoms: S_5  and  S_6
REMARK    4  A    between atoms: S_6  and  C_7
REMARK                            x       y       z     vdW  Elec       q    Type
REMARK                         _______ _______ _______ _____ _____    ______ ____
ROOT
ATOM      1  S   UNL     1     -10.044  15.584  67.133  0.00  0.00    -0.017 S 
ENDROOT
BRANCH   1   2
ATOM      2  C   UNL     1     -10.475  17.318  66.938  0.00  0.00    +0.200 A 
ATOM      3  N   UNL     1      -9.889  18.045  65.953  0.00  0.00    -0.217 NA
ATOM      4  C   UNL     1     -10.163  19.341  66.139  0.00  0.00    +0.122 A 
ATOM      5  C   UNL     1     -10.608  19.439  67.441  0.00  0.00    +0.122 A 
ATOM      6  N   UNL     1     -10.575  18.199  67.964  0.00  0.00    -0.217 NA
ENDBRANCH   1   2
BRANCH   1   7
ATOM      7  S   UNL     1     -11.672  14.296  66.817  0.00  0.00    -0.076 S 
BRANCH   7   8
ATOM      8  C   UNL     1     -11.114  12.811  65.763  0.00  0.00    +0.058 C 
ATOM      9  C   UNL     1     -10.392  13.678  64.645  0.00  0.00    +0.013 C 
BRANCH   8  11
ATOM     10  C   UNL     1     -12.400  12.340  63.990  0.00  0.00    +0.001 C 
ATOM     11  C   UNL     1     -12.488  12.680  64.974  0.00  0.00    +0.012 C 
ENDBRANCH   8  11
ENDBRANCH   7   8
ENDBRANCH   1   7
TORSDOF 4
ENDMDL
MODEL 8
REMARK VINA RESULT:      -3.9      5.342      6.850
REMARK  Name = 
REMARK  4 active torsions:
REMARK  status: ('A' for Active; 'I' for Inactive)
REMARK    1  A    between atoms: C_2  and  C_3
REMARK    2  A    between atoms: C_3  and  S_5
REMARK    3  A    between atoms: S_5  and  S_6
REMARK    4  A    between atoms: S_6  and  C_7
REMARK                            x       y       z     vdW  Elec       q    Type
REMARK                         _______ _______ _______ _____ _____    ______ ____
ROOT
ATOM      1  S   UNL     1      -9.976  15.767  66.331  0.00  0.00    -0.017 S 
ENDROOT
BRANCH   1   2
ATOM      2  C   UNL     1     -10.252  17.538  66.456  0.00  0.00    +0.200 A 
ATOM      3  N   UNL     1      -9.299  18.395  66.012  0.00  0.00    -0.217 NA
ATOM      4  C   UNL     1      -9.597  19.635  66.417  0.00  0.00    +0.122 A 
ATOM      5  C   UNL     1     -10.535  19.479  67.416  0.00  0.00    +0.122 A 
ATOM      6  N   UNL     1     -10.746  18.157  67.557  0.00  0.00    -0.217 NA
ENDBRANCH   1   2
BRANCH   1   7
ATOM      7  S   UNL     1     -11.326  14.818  65.031  0.00  0.00    -0.076 S 
BRANCH   7   8
ATOM      8  C   UNL     1     -10.566  13.187  64.405  0.00  0.00    +0.058 C 
ATOM      9  C   UNL     1     -11.866  12.698  63.632  0.00  0.00    +0.013 C 
BRANCH   8  11
ATOM     10  C   UNL     1     -11.871  12.418  66.056  0.00  0.00    +0.001 C 
ATOM     11  C   UNL     1     -10.878  12.372  65.734  0.00  0.00    +0.012 C 
ENDBRANCH   8  11
ENDBRANCH   7   8
ENDBRANCH   1   7
TORSDOF 4
ENDMDL
MODEL 9
REMARK VINA RESULT:      -3.8      5.256      5.778
REMARK  Name = 
REMARK  4 active torsions:
REMARK  status: ('A' for Active; 'I' for Inactive)
REMARK    1  A    between atoms: C_2  and  C_3
REMARK    2  A    between atoms: C_3  and  S_5
REMARK    3  A    between atoms: S_5  and  S_6
REMARK    4  A    between atoms: S_6  and  C_7
REMARK                            x       y       z     vdW  Elec       q    Type
REMARK                         _______ _______ _______ _____ _____    ______ ____
ROOT
ATOM      1  S   UNL     1     -10.978  15.549  64.996  0.00  0.00    -0.017 S 
ENDROOT
BRANCH   1   2
ATOM      2  C   UNL     1     -11.403  13.851  64.587  0.00  0.00    +0.200 A 
ATOM      3  N   UNL     1     -10.429  12.997  64.187  0.00  0.00    -0.217 NA
ATOM      4  C   UNL     1     -10.990  11.881  63.708  0.00  0.00    +0.122 A 
ATOM      5  C   UNL     1     -12.311  12.203  63.479  0.00  0.00    +0.122 A 
ATOM      6  N   UNL     1     -12.469  13.493  63.829  0.00  0.00    -0.217 NA
ENDBRANCH   1   2
BRANCH   1   7
ATOM      7  S   UNL     1      -9.298  15.694  66.247  0.00  0.00    -0.076 S 
BRANCH   7   8
ATOM      8  C   UNL     1      -8.814  17.524  66.454  0.00  0.00    +0.058 C 
ATOM      9  C   UNL     1      -8.837  17.512  68.043  0.00  0.00    +0.013 C 
BRANCH   8  11
ATOM     10  C   UNL     1     -10.390  19.115  66.368  0.00  0.00    +0.001 C 
ATOM     11  C   UNL     1     -10.296  18.076  66.296  0.00  0.00    +0.012 C 
ENDBRANCH   8  11
ENDBRANCH   7   8
ENDBRANCH   1   7
TORSDOF 4
ENDMDL
