MODEL 1
REMARK VINA RESULT:      -7.4      0.000      0.000
REMARK  Name = 
REMARK  2 active torsions:
REMARK  status: ('A' for Active; 'I' for Inactive)
REMARK    1  A    between atoms: N_17  and  C_18
REMARK    2  A    between atoms: C_18  and  C_19
REMARK                            x       y       z     vdW  Elec       q    Type
REMARK                         _______ _______ _______ _____ _____    ______ ____
ROOT
ATOM      1  O   UNL     1     -11.983   9.883  70.842  0.00  0.00    -0.287 OA
ATOM      2  C   UNL     1     -12.048  11.168  70.315  0.00  0.00    +0.195 A 
ATOM      3  C   UNL     1     -11.372  11.442  69.130  0.00  0.00    +0.038 A 
ATOM      4  C   UNL     1     -11.340  12.725  68.655  0.00  0.00    -0.021 A 
ATOM      5  C   UNL     1     -10.358  13.232  67.638  0.00  0.00    +0.047 C 
ATOM      6  C   UNL     1      -9.118  13.772  68.251  0.00  0.00    +0.024 C 
ATOM      7  C   UNL     1      -8.811  15.180  68.103  0.00  0.00    +0.073 C 
ATOM      8  N   UNL     1      -9.681  16.116  67.595  0.00  0.00    -0.271 NA
ATOM      9  C   UNL     1     -11.190  15.657  67.789  0.00  0.00    +0.090 C 
ATOM     10  C   UNL     1     -10.871  14.968  69.265  0.00  0.00    +0.044 C 
ATOM     11  C   UNL     1     -10.991  14.300  66.876  0.00  0.00    +0.143 C 
ATOM     12  O   UNL     1     -10.257  14.693  65.765  0.00  0.00    -0.224 OA
ATOM     13  C   UNL     1     -12.382  13.967  66.341  0.00  0.00    +0.032 C 
ATOM     14  C   UNL     1     -12.066  12.929  65.267  0.00  0.00    +0.003 C 
ATOM     15  C   UNL     1     -11.304  11.772  65.828  0.00  0.00    +0.000 C 
ATOM     16  C   UNL     1     -10.105  12.135  66.647  0.00  0.00    +0.007 C 
ATOM     17  C   UNL     1     -11.836  13.820  69.362  0.00  0.00    -0.024 A 
ATOM     18  C   UNL     1     -12.370  13.525  70.613  0.00  0.00    -0.001 A 
ATOM     19  C   UNL     1     -12.489  12.234  71.064  0.00  0.00    +0.042 A 
ENDROOT
BRANCH   8  20
ATOM     20  C   UNL     1      -9.609  17.380  68.303  0.00  0.00    +0.072 C 
BRANCH  20  21
ATOM     21  C   UNL     1     -10.538  18.416  67.687  0.00  0.00    +0.016 C 
ATOM     22  C   UNL     1     -10.089  19.805  68.120  0.00  0.00    +0.001 C 
ATOM     23  C   UNL     1      -9.470  19.955  66.738  0.00  0.00    +0.000 C 
ATOM     24  C   UNL     1     -10.156  18.687  66.247  0.00  0.00    +0.001 C 
ENDBRANCH  20  21
ENDBRANCH   8  20
TORSDOF 2
ENDMDL
MODEL 2
REMARK VINA RESULT:      -7.3      1.291      1.703
REMARK  Name = 
REMARK  2 active torsions:
REMARK  status: ('A' for Active; 'I' for Inactive)
REMARK    1  A    between atoms: N_17  and  C_18
REMARK    2  A    between atoms: C_18  and  C_19
REMARK                            x       y       z     vdW  Elec       q    Type
REMARK                         _______ _______ _______ _____ _____    ______ ____
ROOT
ATOM      1  O   UNL     1     -10.555   8.647  69.057  0.00  0.00    -0.287 OA
ATOM      2  C   UNL     1     -11.017   9.916  68.727  0.00  0.00    +0.195 A 
ATOM      3  C   UNL     1     -10.568  10.509  67.552  0.00  0.00    +0.038 A 
ATOM      4  C   UNL     1     -10.932  11.798  67.266  0.00  0.00    -0.021 A 
ATOM      5  C   UNL     1     -10.234  12.678  66.270  0.00  0.00    +0.047 C 
ATOM      6  C   UNL     1      -9.129  13.467  66.869  0.00  0.00    +0.024 C 
ATOM      7  C   UNL     1      -9.229  14.911  66.907  0.00  0.00    +0.073 C 
ATOM      8  N   UNL     1     -10.366  15.620  66.599  0.00  0.00    -0.271 NA
ATOM      9  C   UNL     1     -11.668  14.736  66.826  0.00  0.00    +0.090 C 
ATOM     10  C   UNL     1     -11.022  13.991  68.162  0.00  0.00    +0.044 C 
ATOM     11  C   UNL     1     -11.208  13.609  65.715  0.00  0.00    +0.143 C 
ATOM     12  O   UNL     1     -10.727  14.324  64.625  0.00  0.00    -0.224 OA
ATOM     13  C   UNL     1     -12.506  12.967  65.232  0.00  0.00    +0.032 C 
ATOM     14  C   UNL     1     -12.037  12.197  64.000  0.00  0.00    +0.003 C 
ATOM     15  C   UNL     1     -10.937  11.241  64.335  0.00  0.00    +0.000 C 
ATOM     16  C   UNL     1      -9.801  11.825  65.115  0.00  0.00    +0.007 C 
ATOM     17  C   UNL     1     -11.627  12.615  68.157  0.00  0.00    -0.024 A 
ATOM     18  C   UNL     1     -11.928  12.035  69.384  0.00  0.00    -0.001 A 
ATOM     19  C   UNL     1     -11.647  10.717  69.650  0.00  0.00    +0.042 A 
ENDROOT
BRANCH   8  20
ATOM     20  C   UNL     1     -10.563  16.758  67.476  0.00  0.00    +0.072 C 
BRANCH  20  21
ATOM     21  C   UNL     1      -9.580  17.878  67.165  0.00  0.00    +0.016 C 
ATOM     22  C   UNL     1     -10.286  18.941  66.336  0.00  0.00    +0.001 C 
ATOM     23  C   UNL     1     -10.381  19.766  67.611  0.00  0.00    +0.000 C 
ATOM     24  C   UNL     1      -9.446  18.815  68.346  0.00  0.00    +0.001 C 
ENDBRANCH  20  21
ENDBRANCH   8  20
TORSDOF 2
ENDMDL
MODEL 3
REMARK VINA RESULT:      -7.0      2.552      4.964
REMARK  Name = 
REMARK  2 active torsions:
REMARK  status: ('A' for Active; 'I' for Inactive)
REMARK    1  A    between atoms: N_17  and  C_18
REMARK    2  A    between atoms: C_18  and  C_19
REMARK                            x       y       z     vdW  Elec       q    Type
REMARK                         _______ _______ _______ _____ _____    ______ ____
ROOT
ATOM      1  O   UNL     1     -10.078  12.163  63.364  0.00  0.00    -0.287 OA
ATOM      2  C   UNL     1     -10.646  13.047  64.274  0.00  0.00    +0.195 A 
ATOM      3  C   UNL     1      -9.817  13.706  65.177  0.00  0.00    +0.038 A 
ATOM      4  C   UNL     1     -10.372  14.498  66.146  0.00  0.00    -0.021 A 
ATOM      5  C   UNL     1      -9.660  14.943  67.391  0.00  0.00    +0.047 C 
ATOM      6  C   UNL     1      -9.829  13.998  68.523  0.00  0.00    +0.024 C 
ATOM      7  C   UNL     1     -10.539  14.433  69.708  0.00  0.00    +0.073 C 
ATOM      8  N   UNL     1     -11.248  15.608  69.803  0.00  0.00    -0.271 NA
ATOM      9  C   UNL     1     -11.736  16.096  68.371  0.00  0.00    +0.090 C 
ATOM     10  C   UNL     1     -12.016  14.544  67.853  0.00  0.00    +0.044 C 
ATOM     11  C   UNL     1     -10.199  16.235  67.793  0.00  0.00    +0.143 C 
ATOM     12  O   UNL     1      -9.467  16.847  68.803  0.00  0.00    -0.224 OA
ATOM     13  C   UNL     1     -10.282  17.271  66.674  0.00  0.00    +0.032 C 
ATOM     14  C   UNL     1      -8.809  17.584  66.425  0.00  0.00    +0.003 C 
ATOM     15  C   UNL     1      -8.033  16.350  66.096  0.00  0.00    +0.000 C 
ATOM     16  C   UNL     1      -8.226  15.205  67.041  0.00  0.00    +0.007 C 
ATOM     17  C   UNL     1     -11.745  14.584  66.375  0.00  0.00    -0.024 A 
ATOM     18  C   UNL     1     -12.535  13.793  65.549  0.00  0.00    -0.001 A 
ATOM     19  C   UNL     1     -12.000  13.063  64.517  0.00  0.00    +0.042 A 
ENDROOT
BRANCH   8  20
ATOM     20  C   UNL     1     -12.478  15.453  70.554  0.00  0.00    +0.072 C 
BRANCH  20  21
ATOM     21  C   UNL     1     -12.210  14.940  71.962  0.00  0.00    +0.016 C 
ATOM     22  C   UNL     1     -12.034  16.128  72.897  0.00  0.00    +0.001 C 
ATOM     23  C   UNL     1     -13.453  15.865  73.379  0.00  0.00    +0.000 C 
ATOM     24  C   UNL     1     -13.503  14.535  72.638  0.00  0.00    +0.001 C 
ENDBRANCH  20  21
ENDBRANCH   8  20
TORSDOF 2
ENDMDL
MODEL 4
REMARK VINA RESULT:      -6.8      2.410      6.296
REMARK  Name = 
REMARK  2 active torsions:
REMARK  status: ('A' for Active; 'I' for Inactive)
REMARK    1  A    between atoms: N_17  and  C_18
REMARK    2  A    between atoms: C_18  and  C_19
REMARK                            x       y       z     vdW  Elec       q    Type
REMARK                         _______ _______ _______ _____ _____    ______ ____
ROOT
ATOM      1  O   UNL     1      -9.207  18.059  65.881  0.00  0.00    -0.287 OA
ATOM      2  C   UNL     1      -9.085  16.693  66.113  0.00  0.00    +0.195 A 
ATOM      3  C   UNL     1     -10.211  15.888  65.981  0.00  0.00    +0.038 A 
ATOM      4  C   UNL     1     -10.132  14.561  66.308  0.00  0.00    -0.021 A 
ATOM      5  C   UNL     1     -11.316  13.680  66.585  0.00  0.00    +0.047 C 
ATOM      6  C   UNL     1     -11.710  13.675  68.016  0.00  0.00    +0.024 C 
ATOM      7  C   UNL     1     -11.602  12.446  68.776  0.00  0.00    +0.073 C 
ATOM      8  N   UNL     1     -10.976  11.307  68.327  0.00  0.00    -0.271 NA
ATOM      9  C   UNL     1      -9.875  11.655  67.233  0.00  0.00    +0.090 C 
ATOM     10  C   UNL     1      -9.441  13.059  68.006  0.00  0.00    +0.044 C 
ATOM     11  C   UNL     1     -10.977  12.316  66.202  0.00  0.00    +0.143 C 
ATOM     12  O   UNL     1     -12.068  11.456  66.207  0.00  0.00    -0.224 OA
ATOM     13  C   UNL     1     -10.362  12.175  64.811  0.00  0.00    +0.032 C 
ATOM     14  C   UNL     1     -11.550  12.493  63.907  0.00  0.00    +0.003 C 
ATOM     15  C   UNL     1     -12.132  13.835  64.215  0.00  0.00    +0.000 C 
ATOM     16  C   UNL     1     -12.426  14.086  65.662  0.00  0.00    +0.007 C 
ATOM     17  C   UNL     1      -9.011  13.981  66.900  0.00  0.00    -0.024 A 
ATOM     18  C   UNL     1      -7.957  14.852  67.155  0.00  0.00    -0.001 A 
ATOM     19  C   UNL     1      -7.989  16.165  66.754  0.00  0.00    +0.042 A 
ENDROOT
BRANCH   8  20
ATOM     20  C   UNL     1     -10.226  10.639  69.373  0.00  0.00    +0.072 C 
BRANCH  20  21
ATOM     21  C   UNL     1     -10.940   9.385  69.856  0.00  0.00    +0.016 C 
ATOM     22  C   UNL     1      -9.905   8.382  70.345  0.00  0.00    +0.001 C 
ATOM     23  C   UNL     1     -10.282   8.796  71.760  0.00  0.00    +0.000 C 
ATOM     24  C   UNL     1     -11.484   9.584  71.255  0.00  0.00    +0.001 C 
ENDBRANCH  20  21
ENDBRANCH   8  20
TORSDOF 2
ENDMDL
MODEL 5
REMARK VINA RESULT:      -6.7      3.635      6.921
REMARK  Name = 
REMARK  2 active torsions:
REMARK  status: ('A' for Active; 'I' for Inactive)
REMARK    1  A    between atoms: N_17  and  C_18
REMARK    2  A    between atoms: C_18  and  C_19
REMARK                            x       y       z     vdW  Elec       q    Type
REMARK                         _______ _______ _______ _____ _____    ______ ____
ROOT
ATOM      1  O   UNL     1      -4.555  19.316  71.552  0.00  0.00    -0.287 OA
ATOM      2  C   UNL     1      -5.188  18.615  70.532  0.00  0.00    +0.195 A 
ATOM      3  C   UNL     1      -5.987  19.314  69.633  0.00  0.00    +0.038 A 
ATOM      4  C   UNL     1      -6.699  18.625  68.688  0.00  0.00    -0.021 A 
ATOM      5  C   UNL     1      -7.868  19.183  67.928  0.00  0.00    +0.047 C 
ATOM      6  C   UNL     1      -9.166  18.948  68.610  0.00  0.00    +0.024 C 
ATOM      7  C   UNL     1     -10.155  18.101  67.976  0.00  0.00    +0.073 C 
ATOM      8  N   UNL     1      -9.918  17.328  66.864  0.00  0.00    -0.271 NA
ATOM      9  C   UNL     1      -8.376  16.964  66.740  0.00  0.00    +0.090 C 
ATOM     10  C   UNL     1      -8.201  16.816  68.384  0.00  0.00    +0.044 C 
ATOM     11  C   UNL     1      -7.918  18.542  66.622  0.00  0.00    +0.143 C 
ATOM     12  O   UNL     1      -8.823  19.136  65.751  0.00  0.00    -0.224 OA
ATOM     13  C   UNL     1      -6.590  18.520  65.867  0.00  0.00    +0.032 C 
ATOM     14  C   UNL     1      -6.406  19.994  65.512  0.00  0.00    +0.003 C 
ATOM     15  C   UNL     1      -6.435  20.861  66.729  0.00  0.00    +0.000 C 
ATOM     16  C   UNL     1      -7.594  20.631  67.648  0.00  0.00    +0.007 C 
ATOM     17  C   UNL     1      -6.782  17.233  68.652  0.00  0.00    -0.024 A 
ATOM     18  C   UNL     1      -6.090  16.571  69.661  0.00  0.00    -0.001 A 
ATOM     19  C   UNL     1      -5.302  17.245  70.561  0.00  0.00    +0.042 A 
ENDROOT
BRANCH   8  20
ATOM     20  C   UNL     1     -10.575  16.037  66.937  0.00  0.00    +0.072 C 
BRANCH  20  21
ATOM     21  C   UNL     1     -10.316  15.209  65.687  0.00  0.00    +0.016 C 
ATOM     22  C   UNL     1     -11.005  13.860  65.834  0.00  0.00    +0.001 C 
ATOM     23  C   UNL     1     -12.088  14.395  64.909  0.00  0.00    +0.000 C 
ATOM     24  C   UNL     1     -11.251  15.622  64.570  0.00  0.00    +0.001 C 
ENDBRANCH  20  21
ENDBRANCH   8  20
TORSDOF 2
ENDMDL
MODEL 6
REMARK VINA RESULT:      -6.7      2.143      5.363
REMARK  Name = 
REMARK  2 active torsions:
REMARK  status: ('A' for Active; 'I' for Inactive)
REMARK    1  A    between atoms: N_17  and  C_18
REMARK    2  A    between atoms: C_18  and  C_19
REMARK                            x       y       z     vdW  Elec       q    Type
REMARK                         _______ _______ _______ _____ _____    ______ ____
ROOT
ATOM      1  O   UNL     1     -14.001  15.917  71.915  0.00  0.00    -0.287 OA
ATOM      2  C   UNL     1     -13.112  15.080  71.251  0.00  0.00    +0.195 A 
ATOM      3  C   UNL     1     -12.442  15.564  70.132  0.00  0.00    +0.038 A 
ATOM      4  C   UNL     1     -11.644  14.720  69.407  0.00  0.00    -0.021 A 
ATOM      5  C   UNL     1     -11.185  14.980  68.002  0.00  0.00    +0.047 C 
ATOM      6  C   UNL     1     -12.121  14.448  66.980  0.00  0.00    +0.024 C 
ATOM      7  C   UNL     1     -11.679  13.387  66.099  0.00  0.00    +0.073 C 
ATOM      8  N   UNL     1     -10.507  12.685  66.254  0.00  0.00    -0.271 NA
ATOM      9  C   UNL     1     -10.033  12.696  67.772  0.00  0.00    +0.090 C 
ATOM     10  C   UNL     1     -11.591  12.605  68.339  0.00  0.00    +0.044 C 
ATOM     11  C   UNL     1      -9.892  14.338  67.812  0.00  0.00    +0.143 C 
ATOM     12  O   UNL     1      -9.269  14.695  66.623  0.00  0.00    -0.224 OA
ATOM     13  C   UNL     1      -8.866  14.627  68.905  0.00  0.00    +0.032 C 
ATOM     14  C   UNL     1      -8.549  16.100  68.658  0.00  0.00    +0.003 C 
ATOM     15  C   UNL     1      -9.783  16.942  68.701  0.00  0.00    +0.000 C 
ATOM     16  C   UNL     1     -10.921  16.450  67.862  0.00  0.00    +0.007 C 
ATOM     17  C   UNL     1     -11.562  13.348  69.645  0.00  0.00    -0.024 A 
ATOM     18  C   UNL     1     -12.363  12.875  70.678  0.00  0.00    -0.001 A 
ATOM     19  C   UNL     1     -13.100  13.722  71.469  0.00  0.00    +0.042 A 
ENDROOT
BRANCH   8  20
ATOM     20  C   UNL     1     -10.661  11.276  65.949  0.00  0.00    +0.072 C 
BRANCH  20  21
ATOM     21  C   UNL     1      -9.444  10.475  66.389  0.00  0.00    +0.016 C 
ATOM     22  C   UNL     1      -9.767   8.991  66.296  0.00  0.00    +0.001 C 
ATOM     23  C   UNL     1      -8.959   8.971  65.007  0.00  0.00    +0.000 C 
ATOM     24  C   UNL     1      -8.435  10.378  65.264  0.00  0.00    +0.001 C 
ENDBRANCH  20  21
ENDBRANCH   8  20
TORSDOF 2
ENDMDL
MODEL 7
REMARK VINA RESULT:      -6.7      2.475      4.858
REMARK  Name = 
REMARK  2 active torsions:
REMARK  status: ('A' for Active; 'I' for Inactive)
REMARK    1  A    between atoms: N_17  and  C_18
REMARK    2  A    between atoms: C_18  and  C_19
REMARK                            x       y       z     vdW  Elec       q    Type
REMARK                         _______ _______ _______ _____ _____    ______ ____
ROOT
ATOM      1  O   UNL     1     -10.648  11.221  63.401  0.00  0.00    -0.287 OA
ATOM      2  C   UNL     1     -10.895  12.272  64.276  0.00  0.00    +0.195 A 
ATOM      3  C   UNL     1     -10.112  12.392  65.419  0.00  0.00    +0.038 A 
ATOM      4  C   UNL     1     -10.410  13.357  66.342  0.00  0.00    -0.021 A 
ATOM      5  C   UNL     1      -9.920  13.359  67.762  0.00  0.00    +0.047 C 
ATOM      6  C   UNL     1     -10.834  12.648  68.690  0.00  0.00    +0.024 C 
ATOM      7  C   UNL     1     -11.498  13.394  69.739  0.00  0.00    +0.073 C 
ATOM      8  N   UNL     1     -11.502  14.766  69.835  0.00  0.00    -0.271 NA
ATOM      9  C   UNL     1     -11.282  15.438  68.411  0.00  0.00    +0.090 C 
ATOM     10  C   UNL     1     -12.173  14.269  67.638  0.00  0.00    +0.044 C 
ATOM     11  C   UNL     1      -9.803  14.741  68.208  0.00  0.00    +0.143 C 
ATOM     12  O   UNL     1      -9.150  14.872  69.427  0.00  0.00    -0.224 OA
ATOM     13  C   UNL     1      -9.052  15.663  67.250  0.00  0.00    +0.032 C 
ATOM     14  C   UNL     1      -7.620  15.147  67.374  0.00  0.00    +0.003 C 
ATOM     15  C   UNL     1      -7.532  13.688  67.058  0.00  0.00    +0.000 C 
ATOM     16  C   UNL     1      -8.520  12.820  67.773  0.00  0.00    +0.007 C 
ATOM     17  C   UNL     1     -11.549  14.159  66.275  0.00  0.00    -0.024 A 
ATOM     18  C   UNL     1     -12.389  13.907  65.195  0.00  0.00    -0.001 A 
ATOM     19  C   UNL     1     -12.059  13.003  64.216  0.00  0.00    +0.042 A 
ENDROOT
BRANCH   8  20
ATOM     20  C   UNL     1     -12.783  15.287  70.270  0.00  0.00    +0.072 C 
BRANCH  20  21
ATOM     21  C   UNL     1     -13.248  14.618  71.556  0.00  0.00    +0.016 C 
ATOM     22  C   UNL     1     -12.293  14.988  72.682  0.00  0.00    +0.001 C 
ATOM     23  C   UNL     1     -13.349  15.978  73.152  0.00  0.00    +0.000 C 
ATOM     24  C   UNL     1     -14.378  15.403  72.188  0.00  0.00    +0.001 C 
ENDBRANCH  20  21
ENDBRANCH   8  20
TORSDOF 2
ENDMDL
MODEL 8
REMARK VINA RESULT:      -6.6      2.728      6.899
REMARK  Name = 
REMARK  2 active torsions:
REMARK  status: ('A' for Active; 'I' for Inactive)
REMARK    1  A    between atoms: N_17  and  C_18
REMARK    2  A    between atoms: C_18  and  C_19
REMARK                            x       y       z     vdW  Elec       q    Type
REMARK                         _______ _______ _______ _____ _____    ______ ____
ROOT
ATOM      1  O   UNL     1      -4.668  20.443  67.817  0.00  0.00    -0.287 OA
ATOM      2  C   UNL     1      -5.585  19.587  67.217  0.00  0.00    +0.195 A 
ATOM      3  C   UNL     1      -6.818  19.389  67.830  0.00  0.00    +0.038 A 
ATOM      4  C   UNL     1      -7.689  18.471  67.308  0.00  0.00    -0.021 A 
ATOM      5  C   UNL     1      -8.851  17.881  68.054  0.00  0.00    +0.047 C 
ATOM      6  C   UNL     1      -8.495  16.642  68.791  0.00  0.00    +0.024 C 
ATOM      7  C   UNL     1      -9.108  15.388  68.405  0.00  0.00    +0.073 C 
ATOM      8  N   UNL     1      -9.864  15.209  67.270  0.00  0.00    -0.271 NA
ATOM      9  C   UNL     1      -9.475  16.270  66.152  0.00  0.00    +0.090 C 
ATOM     10  C   UNL     1      -7.867  16.227  66.564  0.00  0.00    +0.044 C 
ATOM     11  C   UNL     1      -9.898  17.554  67.095  0.00  0.00    +0.143 C 
ATOM     12  O   UNL     1     -11.103  17.207  67.693  0.00  0.00    -0.224 OA
ATOM     13  C   UNL     1     -10.243  18.675  66.117  0.00  0.00    +0.032 C 
ATOM     14  C   UNL     1     -10.927  19.690  67.030  0.00  0.00    +0.003 C 
ATOM     15  C   UNL     1     -10.045  20.086  68.170  0.00  0.00    +0.000 C 
ATOM     16  C   UNL     1      -9.435  18.949  68.929  0.00  0.00    +0.007 C 
ATOM     17  C   UNL     1      -7.363  17.610  66.260  0.00  0.00    -0.024 A 
ATOM     18  C   UNL     1      -6.067  17.736  65.772  0.00  0.00    -0.001 A 
ATOM     19  C   UNL     1      -5.212  18.710  66.225  0.00  0.00    +0.042 A 
ENDROOT
BRANCH   8  20
ATOM     20  C   UNL     1      -9.613  13.929  66.635  0.00  0.00    +0.072 C 
BRANCH  20  21
ATOM     21  C   UNL     1     -10.777  12.969  66.839  0.00  0.00    +0.016 C 
ATOM     22  C   UNL     1     -12.073  13.765  66.891  0.00  0.00    +0.001 C 
ATOM     23  C   UNL     1     -12.322  13.312  65.460  0.00  0.00    +0.000 C 
ATOM     24  C   UNL     1     -11.169  12.320  65.528  0.00  0.00    +0.001 C 
ENDBRANCH  20  21
ENDBRANCH   8  20
TORSDOF 2
ENDMDL
MODEL 9
REMARK VINA RESULT:      -6.5      2.170      3.842
REMARK  Name = 
REMARK  2 active torsions:
REMARK  status: ('A' for Active; 'I' for Inactive)
REMARK    1  A    between atoms: N_17  and  C_18
REMARK    2  A    between atoms: C_18  and  C_19
REMARK                            x       y       z     vdW  Elec       q    Type
REMARK                         _______ _______ _______ _____ _____    ______ ____
ROOT
ATOM      1  O   UNL     1     -13.412  12.388  64.625  0.00  0.00    -0.287 OA
ATOM      2  C   UNL     1     -12.368  13.243  64.960  0.00  0.00    +0.195 A 
ATOM      3  C   UNL     1     -11.827  13.172  66.240  0.00  0.00    +0.038 A 
ATOM      4  C   UNL     1     -10.872  14.077  66.618  0.00  0.00    -0.021 A 
ATOM      5  C   UNL     1     -10.490  14.367  68.041  0.00  0.00    +0.047 C 
ATOM      6  C   UNL     1     -11.298  15.456  68.646  0.00  0.00    +0.024 C 
ATOM      7  C   UNL     1     -10.644  16.687  69.038  0.00  0.00    +0.073 C 
ATOM      8  N   UNL     1      -9.347  17.015  68.720  0.00  0.00    -0.271 NA
ATOM      9  C   UNL     1      -8.875  16.259  67.403  0.00  0.00    +0.090 C 
ATOM     10  C   UNL     1     -10.372  16.393  66.698  0.00  0.00    +0.044 C 
ATOM     11  C   UNL     1      -9.090  14.768  68.071  0.00  0.00    +0.143 C 
ATOM     12  O   UNL     1      -8.568  14.848  69.356  0.00  0.00    -0.224 OA
ATOM     13  C   UNL     1      -8.142  13.845  67.309  0.00  0.00    +0.032 C 
ATOM     14  C   UNL     1      -8.152  12.593  68.183  0.00  0.00    +0.003 C 
ATOM     15  C   UNL     1      -9.538  12.068  68.375  0.00  0.00    +0.000 C 
ATOM     16  C   UNL     1     -10.549  13.081  68.811  0.00  0.00    +0.007 C 
ATOM     17  C   UNL     1     -10.494  15.168  65.836  0.00  0.00    -0.024 A 
ATOM     18  C   UNL     1     -11.167  15.291  64.625  0.00  0.00    -0.001 A 
ATOM     19  C   UNL     1     -12.063  14.344  64.194  0.00  0.00    +0.042 A 
ENDROOT
BRANCH   8  20
ATOM     20  C   UNL     1      -9.196  18.418  68.387  0.00  0.00    +0.072 C 
BRANCH  20  21
ATOM     21  C   UNL     1      -7.857  18.691  67.718  0.00  0.00    +0.016 C 
ATOM     22  C   UNL     1      -8.058  19.703  66.599  0.00  0.00    +0.001 C 
ATOM     23  C   UNL     1      -7.478  20.748  67.540  0.00  0.00    +0.000 C 
ATOM     24  C   UNL     1      -7.045  19.676  68.532  0.00  0.00    +0.001 C 
ENDBRANCH  20  21
ENDBRANCH   8  20
TORSDOF 2
ENDMDL
