MODEL 1
REMARK VINA RESULT:      -7.8      0.000      0.000
REMARK  Name = 
REMARK  11 active torsions:
REMARK  status: ('A' for Active; 'I' for Inactive)
REMARK    1  A    between atoms: C_2  and  C_3
REMARK    2  A    between atoms: C_13  and  O_14
REMARK    3  A    between atoms: O_14  and  C_15
REMARK    4  A    between atoms: C_20  and  N_21
REMARK    5  A    between atoms: C_26  and  O_28
REMARK    6  A    between atoms: N_38  and  C_39
REMARK    7  A    between atoms: C_39  and  C_40
REMARK    8  A    between atoms: C_40  and  C_41
REMARK    9  A    between atoms: C_41  and  C_42
REMARK   10  A    between atoms: C_42  and  N_43
REMARK   11  A    between atoms: C_46  and  C_47
REMARK                            x       y       z     vdW  Elec       q    Type
REMARK                         _______ _______ _______ _____ _____    ______ ____
ROOT
ATOM      1  C   UNL     1     -11.494  10.828  67.991  0.00  0.00    +0.207 C 
ATOM      2  C   UNL     1     -10.358   9.822  68.614  0.00  0.00    +0.191 C 
ATOM      3  C   UNL     1      -9.116   9.749  67.591  0.00  0.00    +0.125 C 
ATOM      4  N   UNL     1      -9.064   8.189  67.760  0.00  0.00    -0.244 N 
ATOM      5  C   UNL     1     -10.418   7.953  67.333  0.00  0.00    +0.405 C 
ATOM      6  O   UNL     1     -10.890   6.960  66.704  0.00  0.00    -0.226 OA
ATOM      7  C   UNL     1      -7.867   9.955  68.743  0.00  0.00    +0.079 C 
ATOM      8  C   UNL     1      -6.692   9.463  67.731  0.00  0.00    +0.010 C 
ATOM      9  C   UNL     1      -7.521  11.474  68.484  0.00  0.00    +0.152 C 
ATOM     10  O   UNL     1      -7.077  11.969  69.433  0.00  0.00    -0.296 OA
ATOM     11  C   UNL     1      -7.600  12.099  67.033  0.00  0.00    +0.060 C 
ATOM     12  C   UNL     1      -6.127  11.586  66.498  0.00  0.00    +0.008 C 
ATOM     13  C   UNL     1      -6.928  13.519  67.432  0.00  0.00    +0.037 C 
ATOM     14  C   UNL     1      -7.769  14.560  67.878  0.00  0.00    +0.119 C 
ATOM     15  C   UNL     1      -8.795  14.380  68.922  0.00  0.00    +0.032 C 
ATOM     16  C   UNL     1      -8.419  15.429  66.644  0.00  0.00    +0.149 C 
ATOM     17  C   UNL     1     -10.061  15.081  66.982  0.00  0.00    +0.088 C 
ATOM     18  C   UNL     1     -10.576  16.182  65.907  0.00  0.00    +0.010 C 
ATOM     19  C   UNL     1     -10.177  13.857  65.969  0.00  0.00    +0.163 C 
ATOM     20  O   UNL     1      -9.798  13.939  64.869  0.00  0.00    -0.295 OA
ATOM     21  C   UNL     1     -11.633  13.258  66.313  0.00  0.00    +0.156 C 
ATOM     22  C   UNL     1     -12.325  13.793  64.922  0.00  0.00    +0.020 C 
ATOM     23  C   UNL     1     -11.317  11.809  65.700  0.00  0.00    +0.324 C 
ATOM     24  O   UNL     1     -10.784  11.752  64.581  0.00  0.00    -0.250 OA
ATOM     25  C   UNL     1     -10.017  10.136  69.951  0.00  0.00    +0.049 C 
ATOM     26  O   UNL     1     -11.095   8.659  68.332  0.00  0.00    -0.436 OA
ATOM     27  O   UNL     1     -10.724  11.132  66.706  0.00  0.00    -0.448 OA
ENDROOT
BRANCH  14  28
ATOM     28  O   UNL     1      -6.829  15.434  68.476  0.00  0.00    -0.353 OA
ATOM     29  C   UNL     1      -5.541  14.966  68.536  0.00  0.00    +0.174 C 
ENDBRANCH  14  28
BRANCH   1  31
ATOM     30  C   UNL     1     -11.157  12.353  69.166  0.00  0.00    +0.004 C 
ATOM     31  C   UNL     1     -10.923  12.123  68.834  0.00  0.00    +0.047 C 
ENDBRANCH   1  31
BRANCH  16  32
ATOM     32  O   UNL     1      -8.553  16.670  67.485  0.00  0.00    -0.328 OA
BRANCH  32  33
ATOM     33  C   UNL     1      -8.181  17.792  66.528  0.00  0.00    +0.268 C 
ATOM     34  C   UNL     1      -8.458  18.930  67.782  0.00  0.00    +0.222 C 
ATOM     35  O   UNL     1      -9.728  19.387  67.140  0.00  0.00    -0.216 OA
ATOM     36  C   UNL     1      -7.568  20.225  67.104  0.00  0.00    +0.096 C 
ATOM     37  C   UNL     1      -7.244  19.660  65.649  0.00  0.00    +0.048 C 
ATOM     38  C   UNL     1      -6.431  18.274  65.507  0.00  0.00    +0.119 C 
ATOM     39  C   UNL     1      -4.954  18.905  65.908  0.00  0.00    +0.032 C 
ATOM     40  O   UNL     1      -6.702  17.764  66.914  0.00  0.00    -0.331 OA
BRANCH  36  41
ATOM     41  N   UNL     1      -6.243  19.866  67.885  0.00  0.00    -0.269 NA
ATOM     42  C   UNL     1      -5.545  21.151  67.714  0.00  0.00    +0.090 C 
ATOM     43  C   UNL     1      -6.614  19.959  69.303  0.00  0.00    +0.090 C 
ENDBRANCH  36  41
ENDBRANCH  32  33
ENDBRANCH  16  32
BRANCH   4  44
ATOM     44  C   UNL     1      -8.046   7.338  67.187  0.00  0.00    +0.097 C 
BRANCH  44  45
ATOM     45  C   UNL     1      -8.118   5.968  67.921  0.00  0.00    +0.024 C 
BRANCH  45  46
ATOM     46  C   UNL     1      -7.989   6.438  69.370  0.00  0.00    +0.026 C 
BRANCH  46  47
ATOM     47  C   UNL     1      -8.310   5.145  70.122  0.00  0.00    +0.108 C 
BRANCH  47  48
ATOM     48  N   UNL     1      -9.365   5.575  71.041  0.00  0.00    -0.308 N 
ATOM     49  C   UNL     1      -9.810   6.844  71.233  0.00  0.00    +0.096 A 
ATOM     50  C   UNL     1     -11.086   6.777  71.787  0.00  0.00    +0.102 A 
ATOM     51  N   UNL     1     -11.032   5.587  72.436  0.00  0.00    -0.224 NA
ATOM     52  C   UNL     1     -10.191   4.768  71.755  0.00  0.00    +0.179 A 
BRANCH  50  53
ATOM     53  C   UNL     1     -12.288   7.524  71.375  0.00  0.00    +0.038 A 
ATOM     54  C   UNL     1     -12.495   8.854  71.732  0.00  0.00    +0.100 A 
ATOM     55  N   UNL     1     -13.560   9.234  72.481  0.00  0.00    -0.242 NA
ATOM     56  C   UNL     1     -14.678   8.466  72.487  0.00  0.00    +0.099 A 
ATOM     57  C   UNL     1     -14.689   7.401  71.592  0.00  0.00    +0.021 A 
ATOM     58  C   UNL     1     -13.476   6.811  71.250  0.00  0.00    +0.005 A 
ENDBRANCH  50  53
ENDBRANCH  47  48
ENDBRANCH  46  47
ENDBRANCH  45  46
ENDBRANCH  44  45
ENDBRANCH   4  44
TORSDOF 11
ENDMDL
MODEL 2
REMARK VINA RESULT:      -7.3      1.218      1.917
REMARK  Name = 
REMARK  11 active torsions:
REMARK  status: ('A' for Active; 'I' for Inactive)
REMARK    1  A    between atoms: C_2  and  C_3
REMARK    2  A    between atoms: C_13  and  O_14
REMARK    3  A    between atoms: O_14  and  C_15
REMARK    4  A    between atoms: C_20  and  N_21
REMARK    5  A    between atoms: C_26  and  O_28
REMARK    6  A    between atoms: N_38  and  C_39
REMARK    7  A    between atoms: C_39  and  C_40
REMARK    8  A    between atoms: C_40  and  C_41
REMARK    9  A    between atoms: C_41  and  C_42
REMARK   10  A    between atoms: C_42  and  N_43
REMARK   11  A    between atoms: C_46  and  C_47
REMARK                            x       y       z     vdW  Elec       q    Type
REMARK                         _______ _______ _______ _____ _____    ______ ____
ROOT
ATOM      1  C   UNL     1     -11.519  10.707  67.978  0.00  0.00    +0.207 C 
ATOM      2  C   UNL     1     -10.387   9.670  68.559  0.00  0.00    +0.191 C 
ATOM      3  C   UNL     1      -9.159   9.612  67.519  0.00  0.00    +0.125 C 
ATOM      4  N   UNL     1      -9.123   8.047  67.644  0.00  0.00    -0.244 N 
ATOM      5  C   UNL     1     -10.484   7.839  67.228  0.00  0.00    +0.405 C 
ATOM      6  O   UNL     1     -10.976   6.869  66.577  0.00  0.00    -0.226 OA
ATOM      7  C   UNL     1      -7.893   9.772  68.660  0.00  0.00    +0.079 C 
ATOM      8  C   UNL     1      -6.736   9.295  67.621  0.00  0.00    +0.010 C 
ATOM      9  C   UNL     1      -7.532  11.293  68.439  0.00  0.00    +0.152 C 
ATOM     10  O   UNL     1      -7.072  11.756  69.395  0.00  0.00    -0.296 OA
ATOM     11  C   UNL     1      -7.622  11.959  67.007  0.00  0.00    +0.060 C 
ATOM     12  C   UNL     1      -6.162  11.445  66.440  0.00  0.00    +0.008 C 
ATOM     13  C   UNL     1      -6.929  13.360  67.437  0.00  0.00    +0.037 C 
ATOM     14  C   UNL     1      -7.752  14.397  67.923  0.00  0.00    +0.119 C 
ATOM     15  C   UNL     1      -8.768  14.200  68.974  0.00  0.00    +0.032 C 
ATOM     16  C   UNL     1      -8.408  15.308  66.722  0.00  0.00    +0.149 C 
ATOM     17  C   UNL     1     -10.049  14.969  67.070  0.00  0.00    +0.088 C 
ATOM     18  C   UNL     1     -10.564  16.106  66.033  0.00  0.00    +0.010 C 
ATOM     19  C   UNL     1     -10.192  13.775  66.026  0.00  0.00    +0.163 C 
ATOM     20  O   UNL     1      -9.825  13.884  64.924  0.00  0.00    -0.295 OA
ATOM     21  C   UNL     1     -11.650  13.184  66.371  0.00  0.00    +0.156 C 
ATOM     22  C   UNL     1     -12.353  13.765  65.005  0.00  0.00    +0.020 C 
ATOM     23  C   UNL     1     -11.359  11.748  65.714  0.00  0.00    +0.324 C 
ATOM     24  O   UNL     1     -10.840  11.717  64.587  0.00  0.00    -0.250 OA
ATOM     25  C   UNL     1     -10.026   9.943  69.900  0.00  0.00    +0.049 C 
ATOM     26  O   UNL     1     -11.141   8.524  68.255  0.00  0.00    -0.436 OA
ATOM     27  O   UNL     1     -10.761  11.037  66.694  0.00  0.00    -0.448 OA
ENDROOT
BRANCH  14  28
ATOM     28  O   UNL     1      -6.795  15.244  68.533  0.00  0.00    -0.353 OA
ATOM     29  C   UNL     1      -5.498  14.799  68.487  0.00  0.00    +0.174 C 
ENDBRANCH  14  28
BRANCH   1  31
ATOM     30  C   UNL     1     -11.145  12.187  69.198  0.00  0.00    +0.004 C 
ATOM     31  C   UNL     1     -10.922  11.971  68.851  0.00  0.00    +0.047 C 
ENDBRANCH   1  31
BRANCH  16  32
ATOM     32  O   UNL     1      -8.516  16.527  67.599  0.00  0.00    -0.328 OA
BRANCH  32  33
ATOM     33  C   UNL     1      -8.203  17.676  66.653  0.00  0.00    +0.268 C 
ATOM     34  C   UNL     1      -8.483  18.783  67.934  0.00  0.00    +0.222 C 
ATOM     35  O   UNL     1      -9.782  19.212  67.333  0.00  0.00    -0.216 OA
ATOM     36  C   UNL     1      -7.650  20.116  67.258  0.00  0.00    +0.096 C 
ATOM     37  C   UNL     1      -7.346  19.587  65.785  0.00  0.00    +0.048 C 
ATOM     38  C   UNL     1      -6.495  18.230  65.597  0.00  0.00    +0.119 C 
ATOM     39  C   UNL     1      -5.028  18.899  65.973  0.00  0.00    +0.032 C 
ATOM     40  O   UNL     1      -6.714  17.687  67.001  0.00  0.00    -0.331 OA
BRANCH  36  41
ATOM     41  N   UNL     1      -6.295  19.784  67.999  0.00  0.00    -0.269 NA
ATOM     42  C   UNL     1      -5.636  21.090  67.824  0.00  0.00    +0.090 C 
ATOM     43  C   UNL     1      -6.630  19.852  69.428  0.00  0.00    +0.090 C 
ENDBRANCH  36  41
ENDBRANCH  32  33
ENDBRANCH  16  32
BRANCH   4  44
ATOM     44  C   UNL     1      -8.122   7.201  67.035  0.00  0.00    +0.097 C 
BRANCH  44  45
ATOM     45  C   UNL     1      -8.390   5.746  67.513  0.00  0.00    +0.024 C 
BRANCH  45  46
ATOM     46  C   UNL     1      -8.622   5.997  69.004  0.00  0.00    +0.026 C 
BRANCH  46  47
ATOM     47  C   UNL     1      -9.523   4.812  69.359  0.00  0.00    +0.108 C 
BRANCH  47  48
ATOM     48  N   UNL     1     -10.250   5.315  70.526  0.00  0.00    -0.308 N 
ATOM     49  C   UNL     1      -9.903   5.163  71.830  0.00  0.00    +0.096 A 
ATOM     50  C   UNL     1     -10.544   6.153  72.569  0.00  0.00    +0.102 A 
ATOM     51  N   UNL     1     -11.643   6.383  71.808  0.00  0.00    -0.224 NA
ATOM     52  C   UNL     1     -11.320   6.151  70.511  0.00  0.00    +0.179 A 
BRANCH  50  53
ATOM     53  C   UNL     1      -9.957   7.037  73.592  0.00  0.00    +0.038 A 
ATOM     54  C   UNL     1      -9.321   8.232  73.264  0.00  0.00    +0.100 A 
ATOM     55  N   UNL     1      -8.013   8.447  73.555  0.00  0.00    -0.242 NA
ATOM     56  C   UNL     1      -7.435   7.758  74.569  0.00  0.00    +0.099 A 
ATOM     57  C   UNL     1      -8.289   6.971  75.335  0.00  0.00    +0.021 A 
ATOM     58  C   UNL     1      -9.422   6.439  74.728  0.00  0.00    +0.005 A 
ENDBRANCH  50  53
ENDBRANCH  47  48
ENDBRANCH  46  47
ENDBRANCH  45  46
ENDBRANCH  44  45
ENDBRANCH   4  44
TORSDOF 11
ENDMDL
MODEL 3
REMARK VINA RESULT:      -7.2      3.511     10.082
REMARK  Name = 
REMARK  11 active torsions:
REMARK  status: ('A' for Active; 'I' for Inactive)
REMARK    1  A    between atoms: C_2  and  C_3
REMARK    2  A    between atoms: C_13  and  O_14
REMARK    3  A    between atoms: O_14  and  C_15
REMARK    4  A    between atoms: C_20  and  N_21
REMARK    5  A    between atoms: C_26  and  O_28
REMARK    6  A    between atoms: N_38  and  C_39
REMARK    7  A    between atoms: C_39  and  C_40
REMARK    8  A    between atoms: C_40  and  C_41
REMARK    9  A    between atoms: C_41  and  C_42
REMARK   10  A    between atoms: C_42  and  N_43
REMARK   11  A    between atoms: C_46  and  C_47
REMARK                            x       y       z     vdW  Elec       q    Type
REMARK                         _______ _______ _______ _____ _____    ______ ____
ROOT
ATOM      1  C   UNL     1      -8.159   8.062  65.860  0.00  0.00    +0.207 C 
ATOM      2  C   UNL     1      -8.158   9.692  66.047  0.00  0.00    +0.191 C 
ATOM      3  C   UNL     1      -9.507  10.124  66.812  0.00  0.00    +0.125 C 
ATOM      4  N   UNL     1      -9.708  11.305  65.797  0.00  0.00    -0.244 N 
ATOM      5  C   UNL     1      -9.731  10.479  64.619  0.00  0.00    +0.405 C 
ATOM      6  O   UNL     1     -10.383  10.647  63.544  0.00  0.00    -0.226 OA
ATOM      7  C   UNL     1      -8.788  11.177  67.954  0.00  0.00    +0.079 C 
ATOM      8  C   UNL     1     -10.197  11.864  68.386  0.00  0.00    +0.010 C 
ATOM      9  C   UNL     1      -8.804  10.235  69.222  0.00  0.00    +0.152 C 
ATOM     10  O   UNL     1      -7.957  10.516  69.961  0.00  0.00    -0.296 OA
ATOM     11  C   UNL     1      -9.984   9.212  69.471  0.00  0.00    +0.060 C 
ATOM     12  C   UNL     1     -11.050  10.274  70.143  0.00  0.00    +0.008 C 
ATOM     13  C   UNL     1      -9.514   8.785  70.962  0.00  0.00    +0.037 C 
ATOM     14  C   UNL     1      -8.612   7.710  71.103  0.00  0.00    +0.119 C 
ATOM     15  C   UNL     1      -7.365   7.593  70.322  0.00  0.00    +0.032 C 
ATOM     16  C   UNL     1      -9.359   6.246  71.122  0.00  0.00    +0.149 C 
ATOM     17  C   UNL     1      -8.610   5.606  69.723  0.00  0.00    +0.088 C 
ATOM     18  C   UNL     1      -9.203   4.124  70.013  0.00  0.00    +0.010 C 
ATOM     19  C   UNL     1      -9.778   6.010  68.717  0.00  0.00    +0.163 C 
ATOM     20  O   UNL     1     -10.895   5.776  68.956  0.00  0.00    -0.295 OA
ATOM     21  C   UNL     1      -9.136   5.661  67.281  0.00  0.00    +0.156 C 
ATOM     22  C   UNL     1     -10.088   4.346  67.030  0.00  0.00    +0.020 C 
ATOM     23  C   UNL     1     -10.118   6.636  66.468  0.00  0.00    +0.324 C 
ATOM     24  O   UNL     1     -11.331   6.586  66.722  0.00  0.00    -0.250 OA
ATOM     25  C   UNL     1      -6.960  10.180  66.620  0.00  0.00    +0.049 C 
ATOM     26  O   UNL     1      -8.442   9.944  64.693  0.00  0.00    -0.436 OA
ATOM     27  O   UNL     1      -9.521   7.845  66.519  0.00  0.00    -0.448 OA
ENDROOT
BRANCH  14  28
ATOM     28  O   UNL     1      -8.162   7.901  72.431  0.00  0.00    -0.353 OA
ATOM     29  C   UNL     1      -6.873   8.354  72.559  0.00  0.00    +0.174 C 
ENDBRANCH  14  28
BRANCH   1  31
ATOM     30  C   UNL     1      -6.830   7.685  67.242  0.00  0.00    +0.004 C 
ATOM     31  C   UNL     1      -7.275   7.825  67.230  0.00  0.00    +0.047 C 
ENDBRANCH   1  31
BRANCH  16  32
ATOM     32  O   UNL     1      -8.269   5.613  71.945  0.00  0.00    -0.328 OA
BRANCH  32  33
ATOM     33  C   UNL     1      -9.030   4.803  72.983  0.00  0.00    +0.268 C 
ATOM     34  C   UNL     1      -7.590   3.937  73.335  0.00  0.00    +0.222 C 
ATOM     35  O   UNL     1      -8.104   2.719  72.638  0.00  0.00    -0.216 OA
ATOM     36  C   UNL     1      -8.061   3.343  74.869  0.00  0.00    +0.096 C 
ATOM     37  C   UNL     1      -9.602   3.754  74.909  0.00  0.00    +0.048 C 
ATOM     38  C   UNL     1     -10.005   5.307  74.752  0.00  0.00    +0.119 C 
ATOM     39  C   UNL     1      -9.547   5.754  76.279  0.00  0.00    +0.032 C 
ATOM     40  O   UNL     1      -8.700   5.767  74.122  0.00  0.00    -0.331 OA
BRANCH  36  41
ATOM     41  N   UNL     1      -7.395   4.538  75.658  0.00  0.00    -0.269 NA
ATOM     42  C   UNL     1      -7.393   3.928  76.999  0.00  0.00    +0.090 C 
ATOM     43  C   UNL     1      -5.966   4.446  75.329  0.00  0.00    +0.090 C 
ENDBRANCH  36  41
ENDBRANCH  32  33
ENDBRANCH  16  32
BRANCH   4  44
ATOM     44  C   UNL     1     -10.742  12.310  65.905  0.00  0.00    +0.097 C 
BRANCH  44  45
ATOM     45  C   UNL     1     -10.335  13.497  64.986  0.00  0.00    +0.024 C 
BRANCH  45  46
ATOM     46  C   UNL     1     -11.004  14.651  65.733  0.00  0.00    +0.026 C 
BRANCH  46  47
ATOM     47  C   UNL     1      -9.800  15.269  66.448  0.00  0.00    +0.108 C 
BRANCH  47  48
ATOM     48  N   UNL     1     -10.420  15.878  67.626  0.00  0.00    -0.308 N 
ATOM     49  C   UNL     1     -11.494  15.412  68.314  0.00  0.00    +0.096 A 
ATOM     50  C   UNL     1     -11.468  15.970  69.590  0.00  0.00    +0.102 A 
ATOM     51  N   UNL     1     -10.810  17.134  69.357  0.00  0.00    -0.224 NA
ATOM     52  C   UNL     1      -9.943  16.936  68.332  0.00  0.00    +0.179 A 
BRANCH  50  53
ATOM     53  C   UNL     1     -11.647  15.281  70.880  0.00  0.00    +0.038 A 
ATOM     54  C   UNL     1     -12.184  13.999  70.968  0.00  0.00    +0.100 A 
ATOM     55  N   UNL     1     -13.331  13.750  71.649  0.00  0.00    -0.242 NA
ATOM     56  C   UNL     1     -13.712  14.593  72.641  0.00  0.00    +0.099 A 
ATOM     57  C   UNL     1     -12.799  15.586  72.979  0.00  0.00    +0.021 A 
ATOM     58  C   UNL     1     -11.943  16.064  71.991  0.00  0.00    +0.005 A 
ENDBRANCH  50  53
ENDBRANCH  47  48
ENDBRANCH  46  47
ENDBRANCH  45  46
ENDBRANCH  44  45
ENDBRANCH   4  44
TORSDOF 11
ENDMDL
MODEL 4
REMARK VINA RESULT:      -6.8      2.651      5.735
REMARK  Name = 
REMARK  11 active torsions:
REMARK  status: ('A' for Active; 'I' for Inactive)
REMARK    1  A    between atoms: C_2  and  C_3
REMARK    2  A    between atoms: C_13  and  O_14
REMARK    3  A    between atoms: O_14  and  C_15
REMARK    4  A    between atoms: C_20  and  N_21
REMARK    5  A    between atoms: C_26  and  O_28
REMARK    6  A    between atoms: N_38  and  C_39
REMARK    7  A    between atoms: C_39  and  C_40
REMARK    8  A    between atoms: C_40  and  C_41
REMARK    9  A    between atoms: C_41  and  C_42
REMARK   10  A    between atoms: C_42  and  N_43
REMARK   11  A    between atoms: C_46  and  C_47
REMARK                            x       y       z     vdW  Elec       q    Type
REMARK                         _______ _______ _______ _____ _____    ______ ____
ROOT
ATOM      1  C   UNL     1     -11.475  10.678  67.927  0.00  0.00    +0.207 C 
ATOM      2  C   UNL     1     -10.335   9.677  68.552  0.00  0.00    +0.191 C 
ATOM      3  C   UNL     1      -9.083   9.626  67.541  0.00  0.00    +0.125 C 
ATOM      4  N   UNL     1      -9.018   8.065  67.695  0.00  0.00    -0.244 N 
ATOM      5  C   UNL     1     -10.364   7.820  67.253  0.00  0.00    +0.405 C 
ATOM      6  O   UNL     1     -10.821   6.828  66.609  0.00  0.00    -0.226 OA
ATOM      7  C   UNL     1      -7.847   9.833  68.707  0.00  0.00    +0.079 C 
ATOM      8  C   UNL     1      -6.657   9.363  67.702  0.00  0.00    +0.010 C 
ATOM      9  C   UNL     1      -7.514  11.358  68.466  0.00  0.00    +0.152 C 
ATOM     10  O   UNL     1      -7.085  11.848  69.424  0.00  0.00    -0.296 OA
ATOM     11  C   UNL     1      -7.585  11.996  67.020  0.00  0.00    +0.060 C 
ATOM     12  C   UNL     1      -6.102  11.503  66.495  0.00  0.00    +0.008 C 
ATOM     13  C   UNL     1      -6.931  13.419  67.440  0.00  0.00    +0.037 C 
ATOM     14  C   UNL     1      -7.786  14.447  67.888  0.00  0.00    +0.119 C 
ATOM     15  C   UNL     1      -8.821  14.247  68.920  0.00  0.00    +0.032 C 
ATOM     16  C   UNL     1      -8.434  15.322  66.656  0.00  0.00    +0.149 C 
ATOM     17  C   UNL     1     -10.075  14.954  66.974  0.00  0.00    +0.088 C 
ATOM     18  C   UNL     1     -10.590  16.061  65.904  0.00  0.00    +0.010 C 
ATOM     19  C   UNL     1     -10.169  13.739  65.948  0.00  0.00    +0.163 C 
ATOM     20  O   UNL     1      -9.780  13.836  64.853  0.00  0.00    -0.295 OA
ATOM     21  C   UNL     1     -11.622  13.123  66.272  0.00  0.00    +0.156 C 
ATOM     22  C   UNL     1     -12.306  13.664  64.880  0.00  0.00    +0.020 C 
ATOM     23  C   UNL     1     -11.286  11.682  65.648  0.00  0.00    +0.324 C 
ATOM     24  O   UNL     1     -10.742  11.642  64.534  0.00  0.00    -0.250 OA
ATOM     25  C   UNL     1     -10.011   9.981  69.895  0.00  0.00    +0.049 C 
ATOM     26  O   UNL     1     -11.059   8.510  68.252  0.00  0.00    -0.436 OA
ATOM     27  O   UNL     1     -10.696  11.002  66.654  0.00  0.00    -0.448 OA
ENDROOT
BRANCH  14  28
ATOM     28  O   UNL     1      -6.861  15.324  68.503  0.00  0.00    -0.353 OA
ATOM     29  C   UNL     1      -5.577  14.855  68.601  0.00  0.00    +0.174 C 
ENDBRANCH  14  28
BRANCH   1  31
ATOM     30  C   UNL     1     -11.137  12.155  69.161  0.00  0.00    +0.004 C 
ATOM     31  C   UNL     1     -10.925  11.970  68.789  0.00  0.00    +0.047 C 
ENDBRANCH   1  31
BRANCH  16  32
ATOM     32  O   UNL     1      -8.588  16.554  67.507  0.00  0.00    -0.328 OA
BRANCH  32  33
ATOM     33  C   UNL     1      -8.224  17.688  66.562  0.00  0.00    +0.268 C 
ATOM     34  C   UNL     1      -8.529  18.812  67.824  0.00  0.00    +0.222 C 
ATOM     35  O   UNL     1      -9.800  19.256  67.175  0.00  0.00    -0.216 OA
ATOM     36  C   UNL     1      -7.652  20.125  67.165  0.00  0.00    +0.096 C 
ATOM     37  C   UNL     1      -7.307  19.577  65.708  0.00  0.00    +0.048 C 
ATOM     38  C   UNL     1      -6.473  18.205  65.561  0.00  0.00    +0.119 C 
ATOM     39  C   UNL     1      -5.009  18.854  65.980  0.00  0.00    +0.032 C 
ATOM     40  O   UNL     1      -6.748  17.679  66.961  0.00  0.00    -0.331 OA
BRANCH  36  41
ATOM     41  N   UNL     1      -6.328  19.779  67.954  0.00  0.00    -0.269 NA
ATOM     42  C   UNL     1      -5.649  21.077  67.804  0.00  0.00    +0.090 C 
ATOM     43  C   UNL     1      -6.713  19.849  69.370  0.00  0.00    +0.090 C 
ENDBRANCH  36  41
ENDBRANCH  32  33
ENDBRANCH  16  32
BRANCH   4  44
ATOM     44  C   UNL     1      -7.985   7.230  67.124  0.00  0.00    +0.097 C 
BRANCH  44  45
ATOM     45  C   UNL     1      -8.446   6.836  65.692  0.00  0.00    +0.024 C 
BRANCH  45  46
ATOM     46  C   UNL     1      -7.474   7.677  64.862  0.00  0.00    +0.026 C 
BRANCH  46  47
ATOM     47  C   UNL     1      -8.178   7.675  63.504  0.00  0.00    +0.108 C 
BRANCH  47  48
ATOM     48  N   UNL     1      -7.955   9.044  63.038  0.00  0.00    -0.308 N 
ATOM     49  C   UNL     1      -6.847   9.804  63.241  0.00  0.00    +0.096 A 
ATOM     50  C   UNL     1      -6.823  10.804  62.273  0.00  0.00    +0.102 A 
ATOM     51  N   UNL     1      -8.145  10.949  62.007  0.00  0.00    -0.224 NA
ATOM     52  C   UNL     1      -8.751   9.749  62.193  0.00  0.00    +0.179 A 
BRANCH  50  53
ATOM     53  C   UNL     1      -5.685  11.217  61.431  0.00  0.00    +0.038 A 
ATOM     54  C   UNL     1      -4.477  11.645  61.975  0.00  0.00    +0.100 A 
ATOM     55  N   UNL     1      -3.994  12.892  61.747  0.00  0.00    -0.242 NA
ATOM     56  C   UNL     1      -4.385  13.565  60.636  0.00  0.00    +0.099 A 
ATOM     57  C   UNL     1      -5.157  12.846  59.730  0.00  0.00    +0.021 A 
ATOM     58  C   UNL     1      -5.974  11.829  60.216  0.00  0.00    +0.005 A 
ENDBRANCH  50  53
ENDBRANCH  47  48
ENDBRANCH  46  47
ENDBRANCH  45  46
ENDBRANCH  44  45
ENDBRANCH   4  44
TORSDOF 11
ENDMDL
MODEL 5
REMARK VINA RESULT:      -6.8      2.148      4.293
REMARK  Name = 
REMARK  11 active torsions:
REMARK  status: ('A' for Active; 'I' for Inactive)
REMARK    1  A    between atoms: C_2  and  C_3
REMARK    2  A    between atoms: C_13  and  O_14
REMARK    3  A    between atoms: O_14  and  C_15
REMARK    4  A    between atoms: C_20  and  N_21
REMARK    5  A    between atoms: C_26  and  O_28
REMARK    6  A    between atoms: N_38  and  C_39
REMARK    7  A    between atoms: C_39  and  C_40
REMARK    8  A    between atoms: C_40  and  C_41
REMARK    9  A    between atoms: C_41  and  C_42
REMARK   10  A    between atoms: C_42  and  N_43
REMARK   11  A    between atoms: C_46  and  C_47
REMARK                            x       y       z     vdW  Elec       q    Type
REMARK                         _______ _______ _______ _____ _____    ______ ____
ROOT
ATOM      1  C   UNL     1     -11.438  10.715  68.005  0.00  0.00    +0.207 C 
ATOM      2  C   UNL     1     -10.291   9.711  68.611  0.00  0.00    +0.191 C 
ATOM      3  C   UNL     1      -9.051   9.665  67.584  0.00  0.00    +0.125 C 
ATOM      4  N   UNL     1      -8.984   8.103  67.731  0.00  0.00    -0.244 N 
ATOM      5  C   UNL     1     -10.336   7.860  67.305  0.00  0.00    +0.405 C 
ATOM      6  O   UNL     1     -10.801   6.871  66.663  0.00  0.00    -0.226 OA
ATOM      7  C   UNL     1      -7.801   9.867  68.735  0.00  0.00    +0.079 C 
ATOM      8  C   UNL     1      -6.624   9.401  67.713  0.00  0.00    +0.010 C 
ATOM      9  C   UNL     1      -7.470  11.393  68.496  0.00  0.00    +0.152 C 
ATOM     10  O   UNL     1      -7.029  11.878  69.450  0.00  0.00    -0.296 OA
ATOM     11  C   UNL     1      -7.560  12.037  67.054  0.00  0.00    +0.060 C 
ATOM     12  C   UNL     1      -6.084  11.546  66.508  0.00  0.00    +0.008 C 
ATOM     13  C   UNL     1      -6.901  13.458  67.471  0.00  0.00    +0.037 C 
ATOM     14  C   UNL     1      -7.750  14.484  67.934  0.00  0.00    +0.119 C 
ATOM     15  C   UNL     1      -8.772  14.280  68.979  0.00  0.00    +0.032 C 
ATOM     16  C   UNL     1      -8.413  15.364  66.714  0.00  0.00    +0.149 C 
ATOM     17  C   UNL     1     -10.050  14.995  67.052  0.00  0.00    +0.088 C 
ATOM     18  C   UNL     1     -10.579  16.106  65.993  0.00  0.00    +0.010 C 
ATOM     19  C   UNL     1     -10.157  13.784  66.022  0.00  0.00    +0.163 C 
ATOM     20  O   UNL     1      -9.783  13.885  64.923  0.00  0.00    -0.295 OA
ATOM     21  C   UNL     1     -11.606  13.166  66.362  0.00  0.00    +0.156 C 
ATOM     22  C   UNL     1     -12.308  13.714  64.981  0.00  0.00    +0.020 C 
ATOM     23  C   UNL     1     -11.278  11.729  65.728  0.00  0.00    +0.324 C 
ATOM     24  O   UNL     1     -10.748  11.692  64.607  0.00  0.00    -0.250 OA
ATOM     25  C   UNL     1      -9.949  10.010  69.951  0.00  0.00    +0.049 C 
ATOM     26  O   UNL     1     -11.018   8.545  68.315  0.00  0.00    -0.436 OA
ATOM     27  O   UNL     1     -10.675  11.044  66.723  0.00  0.00    -0.448 OA
ENDROOT
BRANCH  14  28
ATOM     28  O   UNL     1      -6.817  15.359  68.542  0.00  0.00    -0.353 OA
ATOM     29  C   UNL     1      -5.531  14.890  68.619  0.00  0.00    +0.174 C 
ENDBRANCH  14  28
BRANCH   1  31
ATOM     30  C   UNL     1     -11.110  12.222  69.206  0.00  0.00    +0.004 C 
ATOM     31  C   UNL     1     -10.877  12.003  68.865  0.00  0.00    +0.047 C 
ENDBRANCH   1  31
BRANCH  16  32
ATOM     32  O   UNL     1      -8.556  16.592  67.573  0.00  0.00    -0.328 OA
BRANCH  32  33
ATOM     33  C   UNL     1      -8.233  17.733  66.620  0.00  0.00    +0.268 C 
ATOM     34  C   UNL     1      -8.506  18.850  67.895  0.00  0.00    +0.222 C 
ATOM     35  O   UNL     1      -9.801  19.285  67.289  0.00  0.00    -0.216 OA
ATOM     36  C   UNL     1      -7.662  20.172  67.212  0.00  0.00    +0.096 C 
ATOM     37  C   UNL     1      -7.360  19.632  65.743  0.00  0.00    +0.048 C 
ATOM     38  C   UNL     1      -6.519  18.267  65.564  0.00  0.00    +0.119 C 
ATOM     39  C   UNL     1      -5.048  18.928  65.938  0.00  0.00    +0.032 C 
ATOM     40  O   UNL     1      -6.744  17.735  66.971  0.00  0.00    -0.331 OA
BRANCH  36  41
ATOM     41  N   UNL     1      -6.311  19.835  67.957  0.00  0.00    -0.269 NA
ATOM     42  C   UNL     1      -5.649  21.141  67.791  0.00  0.00    +0.090 C 
ATOM     43  C   UNL     1      -6.651  19.896  69.385  0.00  0.00    +0.090 C 
ENDBRANCH  36  41
ENDBRANCH  32  33
ENDBRANCH  16  32
BRANCH   4  44
ATOM     44  C   UNL     1      -7.959   7.270  67.143  0.00  0.00    +0.097 C 
BRANCH  44  45
ATOM     45  C   UNL     1      -7.851   5.984  68.012  0.00  0.00    +0.024 C 
BRANCH  45  46
ATOM     46  C   UNL     1      -7.025   5.101  67.075  0.00  0.00    +0.026 C 
BRANCH  46  47
ATOM     47  C   UNL     1      -8.120   4.224  66.464  0.00  0.00    +0.108 C 
BRANCH  47  48
ATOM     48  N   UNL     1      -7.962   4.485  65.033  0.00  0.00    -0.308 N 
ATOM     49  C   UNL     1      -8.726   5.304  64.265  0.00  0.00    +0.096 A 
ATOM     50  C   UNL     1      -7.993   5.647  63.132  0.00  0.00    +0.102 A 
ATOM     51  N   UNL     1      -7.179   4.569  63.007  0.00  0.00    -0.224 NA
ATOM     52  C   UNL     1      -6.936   4.072  64.246  0.00  0.00    +0.179 A 
BRANCH  50  53
ATOM     53  C   UNL     1      -7.806   6.988  62.551  0.00  0.00    +0.038 A 
ATOM     54  C   UNL     1      -7.447   8.089  63.324  0.00  0.00    +0.100 A 
ATOM     55  N   UNL     1      -8.246   9.181  63.426  0.00  0.00    -0.242 NA
ATOM     56  C   UNL     1      -9.136   9.449  62.439  0.00  0.00    +0.099 A 
ATOM     57  C   UNL     1      -9.054   8.640  61.310  0.00  0.00    +0.021 A 
ATOM     58  C   UNL     1      -8.601   7.334  61.463  0.00  0.00    +0.005 A 
ENDBRANCH  50  53
ENDBRANCH  47  48
ENDBRANCH  46  47
ENDBRANCH  45  46
ENDBRANCH  44  45
ENDBRANCH   4  44
TORSDOF 11
ENDMDL
MODEL 6
REMARK VINA RESULT:      -6.7      2.490      4.356
REMARK  Name = 
REMARK  11 active torsions:
REMARK  status: ('A' for Active; 'I' for Inactive)
REMARK    1  A    between atoms: C_2  and  C_3
REMARK    2  A    between atoms: C_13  and  O_14
REMARK    3  A    between atoms: O_14  and  C_15
REMARK    4  A    between atoms: C_20  and  N_21
REMARK    5  A    between atoms: C_26  and  O_28
REMARK    6  A    between atoms: N_38  and  C_39
REMARK    7  A    between atoms: C_39  and  C_40
REMARK    8  A    between atoms: C_40  and  C_41
REMARK    9  A    between atoms: C_41  and  C_42
REMARK   10  A    between atoms: C_42  and  N_43
REMARK   11  A    between atoms: C_46  and  C_47
REMARK                            x       y       z     vdW  Elec       q    Type
REMARK                         _______ _______ _______ _____ _____    ______ ____
ROOT
ATOM      1  C   UNL     1      -9.347   6.057  66.539  0.00  0.00    +0.207 C 
ATOM      2  C   UNL     1      -9.167   5.673  68.124  0.00  0.00    +0.191 C 
ATOM      3  C   UNL     1      -7.899   6.476  68.709  0.00  0.00    +0.125 C 
ATOM      4  N   UNL     1      -7.403   5.173  69.431  0.00  0.00    -0.244 N 
ATOM      5  C   UNL     1      -7.314   4.373  68.239  0.00  0.00    +0.405 C 
ATOM      6  O   UNL     1      -6.497   3.444  67.965  0.00  0.00    -0.226 OA
ATOM      7  C   UNL     1      -8.638   7.040  70.147  0.00  0.00    +0.079 C 
ATOM      8  C   UNL     1      -7.230   7.459  70.846  0.00  0.00    +0.010 C 
ATOM      9  C   UNL     1      -8.928   8.533  69.724  0.00  0.00    +0.152 C 
ATOM     10  O   UNL     1      -9.830   8.964  70.307  0.00  0.00    -0.296 OA
ATOM     11  C   UNL     1      -7.938   9.326  68.780  0.00  0.00    +0.060 C 
ATOM     12  C   UNL     1      -6.853   9.778  69.937  0.00  0.00    +0.008 C 
ATOM     13  C   UNL     1      -8.670  10.762  68.947  0.00  0.00    +0.037 C 
ATOM     14  C   UNL     1      -9.714  11.094  68.059  0.00  0.00    +0.119 C 
ATOM     15  C   UNL     1     -10.838  10.188  67.755  0.00  0.00    +0.032 C 
ATOM     16  C   UNL     1      -9.171  11.748  66.652  0.00  0.00    +0.149 C 
ATOM     17  C   UNL     1      -9.783  10.539  65.606  0.00  0.00    +0.088 C 
ATOM     18  C   UNL     1      -9.434  11.422  64.289  0.00  0.00    +0.010 C 
ATOM     19  C   UNL     1      -8.439   9.687  65.542  0.00  0.00    +0.163 C 
ATOM     20  O   UNL     1      -7.408  10.190  65.334  0.00  0.00    -0.295 OA
ATOM     21  C   UNL     1      -8.904   8.365  64.746  0.00  0.00    +0.156 C 
ATOM     22  C   UNL     1      -8.101   8.755  63.367  0.00  0.00    +0.020 C 
ATOM     23  C   UNL     1      -7.697   7.461  65.296  0.00  0.00    +0.324 C 
ATOM     24  O   UNL     1      -6.550   7.932  65.258  0.00  0.00    -0.250 OA
ATOM     25  C   UNL     1     -10.363   5.817  68.865  0.00  0.00    +0.049 C 
ATOM     26  O   UNL     1      -8.658   4.390  67.854  0.00  0.00    -0.436 OA
ATOM     27  O   UNL     1      -8.135   6.986  66.481  0.00  0.00    -0.448 OA
ENDROOT
BRANCH  14  28
ATOM     28  O   UNL     1     -10.325  12.172  68.743  0.00  0.00    -0.353 OA
ATOM     29  C   UNL     1     -11.474  11.864  69.425  0.00  0.00    +0.174 C 
ENDBRANCH  14  28
BRANCH   1  31
ATOM     30  C   UNL     1     -10.908   7.188  66.858  0.00  0.00    +0.004 C 
ATOM     31  C   UNL     1     -10.445   7.240  66.870  0.00  0.00    +0.047 C 
ENDBRANCH   1  31
BRANCH  16  32
ATOM     32  O   UNL     1     -10.442  12.524  66.431  0.00  0.00    -0.328 OA
BRANCH  32  33
ATOM     33  C   UNL     1      -9.950  13.898  66.001  0.00  0.00    +0.268 C 
ATOM     34  C   UNL     1     -11.424  14.579  66.559  0.00  0.00    +0.222 C 
ATOM     35  O   UNL     1     -11.903  14.789  65.159  0.00  0.00    -0.216 OA
ATOM     36  C   UNL     1     -10.882  16.197  66.690  0.00  0.00    +0.096 C 
ATOM     37  C   UNL     1      -9.448  16.109  65.997  0.00  0.00    +0.048 C 
ATOM     38  C   UNL     1      -8.349  15.090  66.592  0.00  0.00    +0.119 C 
ATOM     39  C   UNL     1      -7.973  16.007  67.919  0.00  0.00    +0.032 C 
ATOM     40  O   UNL     1      -9.321  14.208  67.359  0.00  0.00    -0.331 OA
BRANCH  36  41
ATOM     41  N   UNL     1     -10.503  16.061  68.217  0.00  0.00    -0.269 NA
ATOM     42  C   UNL     1     -10.360  17.495  68.525  0.00  0.00    +0.090 C 
ATOM     43  C   UNL     1     -11.778  15.777  68.890  0.00  0.00    +0.090 C 
ENDBRANCH  36  41
ENDBRANCH  32  33
ENDBRANCH  16  32
BRANCH   4  44
ATOM     44  C   UNL     1      -6.276   5.118  70.335  0.00  0.00    +0.097 C 
BRANCH  44  45
ATOM     45  C   UNL     1      -6.454   3.853  71.223  0.00  0.00    +0.024 C 
BRANCH  45  46
ATOM     46  C   UNL     1      -7.955   3.936  71.502  0.00  0.00    +0.026 C 
BRANCH  46  47
ATOM     47  C   UNL     1      -7.953   4.442  72.946  0.00  0.00    +0.108 C 
BRANCH  47  48
ATOM     48  N   UNL     1      -9.351   4.829  73.140  0.00  0.00    -0.308 N 
ATOM     49  C   UNL     1      -9.828   6.083  73.350  0.00  0.00    +0.096 A 
ATOM     50  C   UNL     1     -11.178   6.097  73.008  0.00  0.00    +0.102 A 
ATOM     51  N   UNL     1     -11.523   4.805  73.235  0.00  0.00    -0.224 NA
ATOM     52  C   UNL     1     -10.437   4.026  72.999  0.00  0.00    +0.179 A 
BRANCH  50  53
ATOM     53  C   UNL     1     -11.887   7.084  72.175  0.00  0.00    +0.038 A 
ATOM     54  C   UNL     1     -12.007   8.421  72.548  0.00  0.00    +0.100 A 
ATOM     55  N   UNL     1     -13.217   8.999  72.755  0.00  0.00    -0.242 NA
ATOM     56  C   UNL     1     -14.314   8.479  72.152  0.00  0.00    +0.099 A 
ATOM     57  C   UNL     1     -14.080   7.457  71.238  0.00  0.00    +0.021 A 
ATOM     58  C   UNL     1     -12.974   6.636  71.431  0.00  0.00    +0.005 A 
ENDBRANCH  50  53
ENDBRANCH  47  48
ENDBRANCH  46  47
ENDBRANCH  45  46
ENDBRANCH  44  45
ENDBRANCH   4  44
TORSDOF 11
ENDMDL
MODEL 7
REMARK VINA RESULT:      -6.7      4.016      6.941
REMARK  Name = 
REMARK  11 active torsions:
REMARK  status: ('A' for Active; 'I' for Inactive)
REMARK    1  A    between atoms: C_2  and  C_3
REMARK    2  A    between atoms: C_13  and  O_14
REMARK    3  A    between atoms: O_14  and  C_15
REMARK    4  A    between atoms: C_20  and  N_21
REMARK    5  A    between atoms: C_26  and  O_28
REMARK    6  A    between atoms: N_38  and  C_39
REMARK    7  A    between atoms: C_39  and  C_40
REMARK    8  A    between atoms: C_40  and  C_41
REMARK    9  A    between atoms: C_41  and  C_42
REMARK   10  A    between atoms: C_42  and  N_43
REMARK   11  A    between atoms: C_46  and  C_47
REMARK                            x       y       z     vdW  Elec       q    Type
REMARK                         _______ _______ _______ _____ _____    ______ ____
ROOT
ATOM      1  C   UNL     1     -10.125   6.701  73.142  0.00  0.00    +0.207 C 
ATOM      2  C   UNL     1      -9.175   5.587  72.402  0.00  0.00    +0.191 C 
ATOM      3  C   UNL     1      -9.913   5.089  71.060  0.00  0.00    +0.125 C 
ATOM      4  N   UNL     1      -9.557   3.601  71.413  0.00  0.00    -0.244 N 
ATOM      5  C   UNL     1     -10.217   3.595  72.692  0.00  0.00    +0.405 C 
ATOM      6  O   UNL     1     -10.809   2.639  73.276  0.00  0.00    -0.226 OA
ATOM      7  C   UNL     1      -8.566   5.203  70.010  0.00  0.00    +0.079 C 
ATOM      8  C   UNL     1      -9.258   4.318  68.834  0.00  0.00    +0.010 C 
ATOM      9  C   UNL     1      -8.924   6.552  69.272  0.00  0.00    +0.152 C 
ATOM     10  O   UNL     1      -7.970   7.085  68.889  0.00  0.00    -0.296 OA
ATOM     11  C   UNL     1     -10.424   6.941  68.953  0.00  0.00    +0.060 C 
ATOM     12  C   UNL     1     -10.590   6.047  67.578  0.00  0.00    +0.008 C 
ATOM     13  C   UNL     1     -10.066   8.230  68.038  0.00  0.00    +0.037 C 
ATOM     14  C   UNL     1      -9.920   9.484  68.667  0.00  0.00    +0.119 C 
ATOM     15  C   UNL     1      -9.089   9.695  69.868  0.00  0.00    +0.032 C 
ATOM     16  C   UNL     1     -11.352  10.265  68.873  0.00  0.00    +0.149 C 
ATOM     17  C   UNL     1     -11.312  10.333  70.583  0.00  0.00    +0.088 C 
ATOM     18  C   UNL     1     -12.588  11.335  70.630  0.00  0.00    +0.010 C 
ATOM     19  C   UNL     1     -12.179   9.018  70.817  0.00  0.00    +0.163 C 
ATOM     20  O   UNL     1     -13.182   8.842  70.250  0.00  0.00    -0.295 OA
ATOM     21  C   UNL     1     -12.066   8.807  72.410  0.00  0.00    +0.156 C 
ATOM     22  C   UNL     1     -13.620   9.249  72.710  0.00  0.00    +0.020 C 
ATOM     23  C   UNL     1     -12.432   7.245  72.353  0.00  0.00    +0.324 C 
ATOM     24  O   UNL     1     -13.407   6.898  71.668  0.00  0.00    -0.250 OA
ATOM     25  C   UNL     1      -7.842   6.029  72.226  0.00  0.00    +0.049 C 
ATOM     26  O   UNL     1      -9.462   4.579  73.339  0.00  0.00    -0.436 OA
ATOM     27  O   UNL     1     -11.256   6.625  72.117  0.00  0.00    -0.448 OA
ENDROOT
BRANCH  14  28
ATOM     28  O   UNL     1      -9.252  10.220  67.660  0.00  0.00    -0.353 OA
ATOM     29  C   UNL     1      -8.824   9.491  66.580  0.00  0.00    +0.174 C 
ENDBRANCH  14  28
BRANCH   1  31
ATOM     30  C   UNL     1      -9.028   8.237  72.637  0.00  0.00    +0.004 C 
ATOM     31  C   UNL     1      -9.340   7.961  72.428  0.00  0.00    +0.047 C 
ENDBRANCH   1  31
BRANCH  16  32
ATOM     32  O   UNL     1     -10.704  11.624  68.845  0.00  0.00    -0.328 OA
BRANCH  32  33
ATOM     33  C   UNL     1     -11.626  12.440  67.952  0.00  0.00    +0.268 C 
ATOM     34  C   UNL     1     -10.840  13.871  68.481  0.00  0.00    +0.222 C 
ATOM     35  O   UNL     1     -12.017  14.257  69.317  0.00  0.00    -0.216 OA
ATOM     36  C   UNL     1     -11.335  14.882  67.192  0.00  0.00    +0.096 C 
ATOM     37  C   UNL     1     -12.393  13.951  66.447  0.00  0.00    +0.048 C 
ATOM     38  C   UNL     1     -11.922  12.512  65.893  0.00  0.00    +0.119 C 
ATOM     39  C   UNL     1     -11.086  13.101  64.590  0.00  0.00    +0.032 C 
ATOM     40  O   UNL     1     -10.676  12.389  66.756  0.00  0.00    -0.331 OA
BRANCH  36  41
ATOM     41  N   UNL     1     -10.030  14.621  66.342  0.00  0.00    -0.269 NA
ATOM     42  C   UNL     1     -10.188  15.721  65.375  0.00  0.00    +0.090 C 
ATOM     43  C   UNL     1      -8.939  15.155  67.167  0.00  0.00    +0.090 C 
ENDBRANCH  36  41
ENDBRANCH  32  33
ENDBRANCH  16  32
BRANCH   4  44
ATOM     44  C   UNL     1      -9.813   2.472  70.547  0.00  0.00    +0.097 C 
BRANCH  44  45
ATOM     45  C   UNL     1      -8.794   1.358  70.923  0.00  0.00    +0.024 C 
BRANCH  45  46
ATOM     46  C   UNL     1      -9.606   0.119  70.543  0.00  0.00    +0.026 C 
BRANCH  46  47
ATOM     47  C   UNL     1     -10.004  -0.401  71.926  0.00  0.00    +0.108 C 
BRANCH  47  48
ATOM     48  N   UNL     1     -11.326  -0.976  71.671  0.00  0.00    -0.308 N 
ATOM     49  C   UNL     1     -12.243  -1.353  72.599  0.00  0.00    +0.096 A 
ATOM     50  C   UNL     1     -13.493  -1.385  71.987  0.00  0.00    +0.102 A 
ATOM     51  N   UNL     1     -13.152  -1.645  70.700  0.00  0.00    -0.224 NA
ATOM     52  C   UNL     1     -11.933  -1.098  70.463  0.00  0.00    +0.179 A 
BRANCH  50  53
ATOM     53  C   UNL     1     -14.755  -0.810  72.484  0.00  0.00    +0.038 A 
ATOM     54  C   UNL     1     -14.990   0.563  72.500  0.00  0.00    +0.100 A 
ATOM     55  N   UNL     1     -15.224   1.233  73.656  0.00  0.00    -0.242 NA
ATOM     56  C   UNL     1     -15.715   0.563  74.728  0.00  0.00    +0.099 A 
ATOM     57  C   UNL     1     -16.080  -0.761  74.501  0.00  0.00    +0.021 A 
ATOM     58  C   UNL     1     -15.401  -1.477  73.520  0.00  0.00    +0.005 A 
ENDBRANCH  50  53
ENDBRANCH  47  48
ENDBRANCH  46  47
ENDBRANCH  45  46
ENDBRANCH  44  45
ENDBRANCH   4  44
TORSDOF 11
ENDMDL
MODEL 8
REMARK VINA RESULT:      -6.7      1.134      1.794
REMARK  Name = 
REMARK  11 active torsions:
REMARK  status: ('A' for Active; 'I' for Inactive)
REMARK    1  A    between atoms: C_2  and  C_3
REMARK    2  A    between atoms: C_13  and  O_14
REMARK    3  A    between atoms: O_14  and  C_15
REMARK    4  A    between atoms: C_20  and  N_21
REMARK    5  A    between atoms: C_26  and  O_28
REMARK    6  A    between atoms: N_38  and  C_39
REMARK    7  A    between atoms: C_39  and  C_40
REMARK    8  A    between atoms: C_40  and  C_41
REMARK    9  A    between atoms: C_41  and  C_42
REMARK   10  A    between atoms: C_42  and  N_43
REMARK   11  A    between atoms: C_46  and  C_47
REMARK                            x       y       z     vdW  Elec       q    Type
REMARK                         _______ _______ _______ _____ _____    ______ ____
ROOT
ATOM      1  C   UNL     1     -11.484  10.727  67.955  0.00  0.00    +0.207 C 
ATOM      2  C   UNL     1     -10.339   9.728  68.574  0.00  0.00    +0.191 C 
ATOM      3  C   UNL     1      -9.097   9.668  67.550  0.00  0.00    +0.125 C 
ATOM      4  N   UNL     1      -9.033   8.108  67.715  0.00  0.00    -0.244 N 
ATOM      5  C   UNL     1     -10.385   7.863  67.288  0.00  0.00    +0.405 C 
ATOM      6  O   UNL     1     -10.850   6.867  66.656  0.00  0.00    -0.226 OA
ATOM      7  C   UNL     1      -7.849   9.881  68.702  0.00  0.00    +0.079 C 
ATOM      8  C   UNL     1      -6.671   9.402  67.688  0.00  0.00    +0.010 C 
ATOM      9  C   UNL     1      -7.515  11.403  68.447  0.00  0.00    +0.152 C 
ATOM     10  O   UNL     1      -7.075  11.899  69.397  0.00  0.00    -0.296 OA
ATOM     11  C   UNL     1      -7.601  12.032  66.998  0.00  0.00    +0.060 C 
ATOM     12  C   UNL     1      -6.125  11.532  66.460  0.00  0.00    +0.008 C 
ATOM     13  C   UNL     1      -6.940  13.456  67.401  0.00  0.00    +0.037 C 
ATOM     14  C   UNL     1      -7.788  14.489  67.851  0.00  0.00    +0.119 C 
ATOM     15  C   UNL     1      -8.813  14.298  68.895  0.00  0.00    +0.032 C 
ATOM     16  C   UNL     1      -8.447  15.356  66.620  0.00  0.00    +0.149 C 
ATOM     17  C   UNL     1     -10.086  14.994  66.958  0.00  0.00    +0.088 C 
ATOM     18  C   UNL     1     -10.610  16.094  65.886  0.00  0.00    +0.010 C 
ATOM     19  C   UNL     1     -10.193  13.772  65.942  0.00  0.00    +0.163 C 
ATOM     20  O   UNL     1      -9.816  13.861  64.842  0.00  0.00    -0.295 OA
ATOM     21  C   UNL     1     -11.643  13.161  66.285  0.00  0.00    +0.156 C 
ATOM     22  C   UNL     1     -12.341  13.694  64.896  0.00  0.00    +0.020 C 
ATOM     23  C   UNL     1     -11.317  11.716  65.667  0.00  0.00    +0.324 C 
ATOM     24  O   UNL     1     -10.784  11.666  64.548  0.00  0.00    -0.250 OA
ATOM     25  C   UNL     1     -10.000  10.041  69.912  0.00  0.00    +0.049 C 
ATOM     26  O   UNL     1     -11.068   8.560  68.290  0.00  0.00    -0.436 OA
ATOM     27  O   UNL     1     -10.717  11.041  66.671  0.00  0.00    -0.448 OA
ENDROOT
BRANCH  14  28
ATOM     28  O   UNL     1      -6.855  15.369  68.451  0.00  0.00    -0.353 OA
ATOM     29  C   UNL     1      -6.701  15.231  69.806  0.00  0.00    +0.174 C 
ENDBRANCH  14  28
BRANCH   1  31
ATOM     30  C   UNL     1     -11.156  12.248  69.138  0.00  0.00    +0.004 C 
ATOM     31  C   UNL     1     -10.922  12.024  68.802  0.00  0.00    +0.047 C 
ENDBRANCH   1  31
BRANCH  16  32
ATOM     32  O   UNL     1      -8.590  16.594  67.465  0.00  0.00    -0.328 OA
BRANCH  32  33
ATOM     33  C   UNL     1      -8.180  17.717  66.524  0.00  0.00    +0.268 C 
ATOM     34  C   UNL     1      -8.493  18.852  67.773  0.00  0.00    +0.222 C 
ATOM     35  O   UNL     1      -9.739  19.319  67.092  0.00  0.00    -0.216 OA
ATOM     36  C   UNL     1      -7.574  20.144  67.131  0.00  0.00    +0.096 C 
ATOM     37  C   UNL     1      -7.205  19.583  65.684  0.00  0.00    +0.048 C 
ATOM     38  C   UNL     1      -6.396  18.194  65.563  0.00  0.00    +0.119 C 
ATOM     39  C   UNL     1      -4.929  18.815  66.016  0.00  0.00    +0.032 C 
ATOM     40  O   UNL     1      -6.715  17.680  66.959  0.00  0.00    -0.331 OA
BRANCH  36  41
ATOM     41  N   UNL     1      -6.277  19.775  67.953  0.00  0.00    -0.269 NA
ATOM     42  C   UNL     1      -5.580  21.067  67.835  0.00  0.00    +0.090 C 
ATOM     43  C   UNL     1      -6.701  19.837  69.358  0.00  0.00    +0.090 C 
ENDBRANCH  36  41
ENDBRANCH  32  33
ENDBRANCH  16  32
BRANCH   4  44
ATOM     44  C   UNL     1      -8.008   7.267  67.138  0.00  0.00    +0.097 C 
BRANCH  44  45
ATOM     45  C   UNL     1      -7.624   6.204  68.207  0.00  0.00    +0.024 C 
BRANCH  45  46
ATOM     46  C   UNL     1      -7.923   4.924  67.426  0.00  0.00    +0.026 C 
BRANCH  46  47
ATOM     47  C   UNL     1      -7.092   3.906  68.210  0.00  0.00    +0.108 C 
BRANCH  47  48
ATOM     48  N   UNL     1      -7.975   3.587  69.334  0.00  0.00    -0.308 N 
ATOM     49  C   UNL     1      -7.745   3.841  70.648  0.00  0.00    +0.096 A 
ATOM     50  C   UNL     1      -8.970   3.837  71.311  0.00  0.00    +0.102 A 
ATOM     51  N   UNL     1      -9.693   2.999  70.528  0.00  0.00    -0.224 NA
ATOM     52  C   UNL     1      -9.245   3.114  69.252  0.00  0.00    +0.179 A 
BRANCH  50  53
ATOM     53  C   UNL     1      -9.476   4.831  72.274  0.00  0.00    +0.038 A 
ATOM     54  C   UNL     1     -10.773   4.781  72.779  0.00  0.00    +0.100 A 
ATOM     55  N   UNL     1     -11.657   5.791  72.577  0.00  0.00    -0.242 NA
ATOM     56  C   UNL     1     -11.194   7.041  72.327  0.00  0.00    +0.099 A 
ATOM     57  C   UNL     1      -9.819   7.214  72.442  0.00  0.00    +0.021 A 
ATOM     58  C   UNL     1      -8.989   6.130  72.173  0.00  0.00    +0.005 A 
ENDBRANCH  50  53
ENDBRANCH  47  48
ENDBRANCH  46  47
ENDBRANCH  45  46
ENDBRANCH  44  45
ENDBRANCH   4  44
TORSDOF 11
ENDMDL
MODEL 9
REMARK VINA RESULT:      -6.6      3.299      7.064
REMARK  Name = 
REMARK  11 active torsions:
REMARK  status: ('A' for Active; 'I' for Inactive)
REMARK    1  A    between atoms: C_2  and  C_3
REMARK    2  A    between atoms: C_13  and  O_14
REMARK    3  A    between atoms: O_14  and  C_15
REMARK    4  A    between atoms: C_20  and  N_21
REMARK    5  A    between atoms: C_26  and  O_28
REMARK    6  A    between atoms: N_38  and  C_39
REMARK    7  A    between atoms: C_39  and  C_40
REMARK    8  A    between atoms: C_40  and  C_41
REMARK    9  A    between atoms: C_41  and  C_42
REMARK   10  A    between atoms: C_42  and  N_43
REMARK   11  A    between atoms: C_46  and  C_47
REMARK                            x       y       z     vdW  Elec       q    Type
REMARK                         _______ _______ _______ _____ _____    ______ ____
ROOT
ATOM      1  C   UNL     1      -9.603   6.646  72.537  0.00  0.00    +0.207 C 
ATOM      2  C   UNL     1      -8.796   5.528  71.648  0.00  0.00    +0.191 C 
ATOM      3  C   UNL     1      -9.734   5.070  70.421  0.00  0.00    +0.125 C 
ATOM      4  N   UNL     1      -9.364   3.569  70.695  0.00  0.00    -0.244 N 
ATOM      5  C   UNL     1      -9.829   3.552  72.056  0.00  0.00    +0.405 C 
ATOM      6  O   UNL     1     -10.351   2.597  72.705  0.00  0.00    -0.226 OA
ATOM      7  C   UNL     1      -8.553   5.178  69.187  0.00  0.00    +0.079 C 
ATOM      8  C   UNL     1      -9.429   4.328  68.111  0.00  0.00    +0.010 C 
ATOM      9  C   UNL     1      -8.985   6.547  68.530  0.00  0.00    +0.152 C 
ATOM     10  O   UNL     1      -8.085   7.068  68.020  0.00  0.00    -0.296 OA
ATOM     11  C   UNL     1     -10.506   6.972  68.442  0.00  0.00    +0.060 C 
ATOM     12  C   UNL     1     -10.892   6.108  67.092  0.00  0.00    +0.008 C 
ATOM     13  C   UNL     1     -10.256   8.270  67.504  0.00  0.00    +0.037 C 
ATOM     14  C   UNL     1      -9.992   9.509  68.125  0.00  0.00    +0.119 C 
ATOM     15  C   UNL     1      -8.990   9.681  69.194  0.00  0.00    +0.032 C 
ATOM     16  C   UNL     1     -11.360  10.315  68.551  0.00  0.00    +0.149 C 
ATOM     17  C   UNL     1     -11.068  10.350  70.237  0.00  0.00    +0.088 C 
ATOM     18  C   UNL     1     -12.301  11.376  70.487  0.00  0.00    +0.010 C 
ATOM     19  C   UNL     1     -11.921   9.048  70.575  0.00  0.00    +0.163 C 
ATOM     20  O   UNL     1     -13.001   8.903  70.159  0.00  0.00    -0.295 OA
ATOM     21  C   UNL     1     -11.581   8.804  72.131  0.00  0.00    +0.156 C 
ATOM     22  C   UNL     1     -13.064   9.272  72.662  0.00  0.00    +0.020 C 
ATOM     23  C   UNL     1     -11.987   7.251  72.103  0.00  0.00    +0.324 C 
ATOM     24  O   UNL     1     -13.059   6.938  71.564  0.00  0.00    -0.250 OA
ATOM     25  C   UNL     1      -7.494   5.946  71.285  0.00  0.00    +0.049 C 
ATOM     26  O   UNL     1      -8.966   4.508  72.601  0.00  0.00    -0.436 OA
ATOM     27  O   UNL     1     -10.872   6.613  71.688  0.00  0.00    -0.448 OA
ENDROOT
BRANCH  14  28
ATOM     28  O   UNL     1      -9.461  10.251  67.042  0.00  0.00    -0.353 OA
ATOM     29  C   UNL     1      -9.301   9.555  65.871  0.00  0.00    +0.174 C 
ENDBRANCH  14  28
BRANCH   1  31
ATOM     30  C   UNL     1      -8.595   8.202  71.919  0.00  0.00    +0.004 C 
ATOM     31  C   UNL     1      -8.902   7.904  71.735  0.00  0.00    +0.047 C 
ENDBRANCH   1  31
BRANCH  16  32
ATOM     32  O   UNL     1     -10.692  11.660  68.449  0.00  0.00    -0.328 OA
BRANCH  32  33
ATOM     33  C   UNL     1     -11.665  12.479  67.615  0.00  0.00    +0.268 C 
ATOM     34  C   UNL     1     -10.887  13.913  68.147  0.00  0.00    +0.222 C 
ATOM     35  O   UNL     1     -12.036  14.254  69.038  0.00  0.00    -0.216 OA
ATOM     36  C   UNL     1     -11.453  14.944  66.904  0.00  0.00    +0.096 C 
ATOM     37  C   UNL     1     -12.522  14.009  66.179  0.00  0.00    +0.048 C 
ATOM     38  C   UNL     1     -12.045  12.594  65.571  0.00  0.00    +0.119 C 
ATOM     39  C   UNL     1     -11.274  13.231  64.251  0.00  0.00    +0.032 C 
ATOM     40  O   UNL     1     -10.763  12.476  66.381  0.00  0.00    -0.331 OA
BRANCH  36  41
ATOM     41  N   UNL     1     -10.179  14.730  65.996  0.00  0.00    -0.269 NA
ATOM     42  C   UNL     1     -10.449  15.786  65.005  0.00  0.00    +0.090 C 
ATOM     43  C   UNL     1      -9.081  15.354  66.748  0.00  0.00    +0.090 C 
ENDBRANCH  36  41
ENDBRANCH  32  33
ENDBRANCH  16  32
BRANCH   4  44
ATOM     44  C   UNL     1      -9.769   2.462  69.857  0.00  0.00    +0.097 C 
BRANCH  44  45
ATOM     45  C   UNL     1      -8.826   1.268  70.179  0.00  0.00    +0.024 C 
BRANCH  45  46
ATOM     46  C   UNL     1      -7.795   1.437  69.061  0.00  0.00    +0.026 C 
BRANCH  46  47
ATOM     47  C   UNL     1      -8.468   0.660  67.928  0.00  0.00    +0.108 C 
BRANCH  47  48
ATOM     48  N   UNL     1      -7.991   1.370  66.740  0.00  0.00    -0.308 N 
ATOM     49  C   UNL     1      -8.727   1.733  65.658  0.00  0.00    +0.096 A 
ATOM     50  C   UNL     1      -8.061   2.767  65.006  0.00  0.00    +0.102 A 
ATOM     51  N   UNL     1      -6.773   2.509  65.346  0.00  0.00    -0.224 NA
ATOM     52  C   UNL     1      -6.764   1.926  66.571  0.00  0.00    +0.179 A 
BRANCH  50  53
ATOM     53  C   UNL     1      -8.625   4.039  64.521  0.00  0.00    +0.038 A 
ATOM     54  C   UNL     1      -9.178   4.168  63.249  0.00  0.00    +0.100 A 
ATOM     55  N   UNL     1      -8.670   5.032  62.335  0.00  0.00    -0.242 NA
ATOM     56  C   UNL     1      -7.965   6.110  62.757  0.00  0.00    +0.099 A 
ATOM     57  C   UNL     1      -7.942   6.321  64.132  0.00  0.00    +0.021 A 
ATOM     58  C   UNL     1      -8.040   5.217  64.973  0.00  0.00    +0.005 A 
ENDBRANCH  50  53
ENDBRANCH  47  48
ENDBRANCH  46  47
ENDBRANCH  45  46
ENDBRANCH  44  45
ENDBRANCH   4  44
TORSDOF 11
ENDMDL
