MODEL 1
REMARK VINA RESULT:      -4.7      0.000      0.000
REMARK  Name = 
REMARK  4 active torsions:
REMARK  status: ('A' for Active; 'I' for Inactive)
REMARK    1  A    between atoms: C_2  and  C_3
REMARK    2  A    between atoms: C_3  and  C_4
REMARK    3  A    between atoms: C_4  and  P_6
REMARK    4  A    between atoms: C_4  and  P_10
REMARK                            x       y       z     vdW  Elec       q    Type
REMARK                         _______ _______ _______ _____ _____    ______ ____
ROOT
ATOM      1  C   UNL     1     -11.235  13.594  66.043  0.00  0.00    +0.217 C 
ATOM      2  O   UNL     1     -12.119  14.288  66.882  0.00  0.00    -0.211 OA
ENDROOT
BRANCH   1   3
ATOM      3  P   UNL     1     -10.880  12.012  66.842  0.00  0.00    +0.151 P 
ATOM      4  O   UNL     1     -10.485  10.808  65.707  0.00  0.00    -0.355 OA
ATOM      5  O   UNL     1      -9.603  12.156  67.955  0.00  0.00    -0.355 OA
ATOM      6  O   UNL     1     -12.079  11.520  67.641  0.00  0.00    -0.457 OA
ENDBRANCH   1   3
BRANCH   1   7
ATOM      7  P   UNL     1     -12.010  13.239  64.457  0.00  0.00    +0.151 P 
ATOM      8  O   UNL     1     -10.972  12.504  63.361  0.00  0.00    -0.355 OA
ATOM      9  O   UNL     1     -12.613  14.714  63.867  0.00  0.00    -0.355 OA
ATOM     10  O   UNL     1     -13.213  12.337  64.681  0.00  0.00    -0.457 OA
ENDBRANCH   1   7
BRANCH   1  11
ATOM     11  C   UNL     1      -9.995  14.433  65.923  0.00  0.00    +0.065 C 
BRANCH  11  13
ATOM     12  N   UNL     1     -10.295  16.811  65.352  0.00  0.00    -0.131 NA
ATOM     13  C   UNL     1     -10.371  15.828  66.402  0.00  0.00    +0.113 C 
ENDBRANCH  11  13
ENDBRANCH   1  11
TORSDOF 4
ENDMDL
MODEL 2
REMARK VINA RESULT:      -4.7      0.091      1.280
REMARK  Name = 
REMARK  4 active torsions:
REMARK  status: ('A' for Active; 'I' for Inactive)
REMARK    1  A    between atoms: C_2  and  C_3
REMARK    2  A    between atoms: C_3  and  C_4
REMARK    3  A    between atoms: C_4  and  P_6
REMARK    4  A    between atoms: C_4  and  P_10
REMARK                            x       y       z     vdW  Elec       q    Type
REMARK                         _______ _______ _______ _____ _____    ______ ____
ROOT
ATOM      1  C   UNL     1     -11.194  13.595  66.007  0.00  0.00    +0.217 C 
ATOM      2  O   UNL     1     -12.054  14.291  66.869  0.00  0.00    -0.211 OA
ENDROOT
BRANCH   1   3
ATOM      3  P   UNL     1     -10.821  12.012  66.798  0.00  0.00    +0.151 P 
ATOM      4  O   UNL     1     -12.135  11.441  67.714  0.00  0.00    -0.355 OA
ATOM      5  O   UNL     1     -10.400  10.832  65.648  0.00  0.00    -0.355 OA
ATOM      6  O   UNL     1      -9.624  12.134  67.731  0.00  0.00    -0.457 OA
ENDBRANCH   1   3
BRANCH   1   7
ATOM      7  P   UNL     1     -12.011  13.239  64.442  0.00  0.00    +0.151 P 
ATOM      8  O   UNL     1     -11.004  12.498  63.322  0.00  0.00    -0.355 OA
ATOM      9  O   UNL     1     -12.624  14.715  63.865  0.00  0.00    -0.355 OA
ATOM     10  O   UNL     1     -13.211  12.342  64.700  0.00  0.00    -0.457 OA
ENDBRANCH   1   7
BRANCH   1  11
ATOM     11  C   UNL     1      -9.956  14.431  65.854  0.00  0.00    +0.065 C 
BRANCH  11  13
ATOM     12  N   UNL     1     -10.309  16.810  65.315  0.00  0.00    -0.131 NA
ATOM     13  C   UNL     1     -10.310  15.822  66.363  0.00  0.00    +0.113 C 
ENDBRANCH  11  13
ENDBRANCH   1  11
TORSDOF 4
ENDMDL
MODEL 3
REMARK VINA RESULT:      -4.6      1.373      3.483
REMARK  Name = 
REMARK  4 active torsions:
REMARK  status: ('A' for Active; 'I' for Inactive)
REMARK    1  A    between atoms: C_2  and  C_3
REMARK    2  A    between atoms: C_3  and  C_4
REMARK    3  A    between atoms: C_4  and  P_6
REMARK    4  A    between atoms: C_4  and  P_10
REMARK                            x       y       z     vdW  Elec       q    Type
REMARK                         _______ _______ _______ _____ _____    ______ ____
ROOT
ATOM      1  C   UNL     1     -11.180  13.539  66.208  0.00  0.00    +0.217 C 
ATOM      2  O   UNL     1      -9.995  14.247  65.959  0.00  0.00    -0.211 OA
ENDROOT
BRANCH   1   3
ATOM      3  P   UNL     1     -12.007  13.317  64.615  0.00  0.00    +0.151 P 
ATOM      4  O   UNL     1     -12.594  14.791  64.001  0.00  0.00    -0.355 OA
ATOM      5  O   UNL     1     -10.960  12.624  63.469  0.00  0.00    -0.355 OA
ATOM      6  O   UNL     1     -13.186  12.362  64.737  0.00  0.00    -0.457 OA
ENDBRANCH   1   3
BRANCH   1   7
ATOM      7  P   UNL     1     -10.818  11.901  66.862  0.00  0.00    +0.151 P 
ATOM      8  O   UNL     1     -10.450  10.777  65.671  0.00  0.00    -0.355 OA
ATOM      9  O   UNL     1     -12.170  11.433  67.780  0.00  0.00    -0.355 OA
ATOM     10  O   UNL     1      -9.650  11.998  67.830  0.00  0.00    -0.457 OA
ENDBRANCH   1   7
BRANCH   1  11
ATOM     11  C   UNL     1     -12.007  14.380  67.138  0.00  0.00    +0.065 C 
BRANCH  11  13
ATOM     12  N   UNL     1     -11.696  16.203  68.767  0.00  0.00    -0.131 NA
ATOM     13  C   UNL     1     -11.056  15.393  67.762  0.00  0.00    +0.113 C 
ENDBRANCH  11  13
ENDBRANCH   1  11
TORSDOF 4
ENDMDL
MODEL 4
REMARK VINA RESULT:      -4.5      1.344      3.555
REMARK  Name = 
REMARK  4 active torsions:
REMARK  status: ('A' for Active; 'I' for Inactive)
REMARK    1  A    between atoms: C_2  and  C_3
REMARK    2  A    between atoms: C_3  and  C_4
REMARK    3  A    between atoms: C_4  and  P_6
REMARK    4  A    between atoms: C_4  and  P_10
REMARK                            x       y       z     vdW  Elec       q    Type
REMARK                         _______ _______ _______ _____ _____    ______ ____
ROOT
ATOM      1  C   UNL     1     -11.150  13.566  66.235  0.00  0.00    +0.217 C 
ATOM      2  O   UNL     1      -9.949  14.240  65.971  0.00  0.00    -0.211 OA
ENDROOT
BRANCH   1   3
ATOM      3  P   UNL     1     -11.987  13.339  64.649  0.00  0.00    +0.151 P 
ATOM      4  O   UNL     1     -12.572  14.812  64.030  0.00  0.00    -0.355 OA
ATOM      5  O   UNL     1     -10.951  12.635  63.500  0.00  0.00    -0.355 OA
ATOM      6  O   UNL     1     -13.170  12.390  64.784  0.00  0.00    -0.457 OA
ENDBRANCH   1   3
BRANCH   1   7
ATOM      7  P   UNL     1     -10.826  11.930  66.915  0.00  0.00    +0.151 P 
ATOM      8  O   UNL     1     -12.151  11.266  67.705  0.00  0.00    -0.355 OA
ATOM      9  O   UNL     1      -9.485  12.088  67.948  0.00  0.00    -0.355 OA
ATOM     10  O   UNL     1     -10.401  10.999  65.792  0.00  0.00    -0.457 OA
ENDBRANCH   1   7
BRANCH   1  11
ATOM     11  C   UNL     1     -11.952  14.443  67.154  0.00  0.00    +0.065 C 
BRANCH  11  13
ATOM     12  N   UNL     1     -11.579  16.322  68.702  0.00  0.00    -0.131 NA
ATOM     13  C   UNL     1     -11.007  15.532  67.643  0.00  0.00    +0.113 C 
ENDBRANCH  11  13
ENDBRANCH   1  11
TORSDOF 4
ENDMDL
MODEL 5
REMARK VINA RESULT:      -4.5      1.382      3.545
REMARK  Name = 
REMARK  4 active torsions:
REMARK  status: ('A' for Active; 'I' for Inactive)
REMARK    1  A    between atoms: C_2  and  C_3
REMARK    2  A    between atoms: C_3  and  C_4
REMARK    3  A    between atoms: C_4  and  P_6
REMARK    4  A    between atoms: C_4  and  P_10
REMARK                            x       y       z     vdW  Elec       q    Type
REMARK                         _______ _______ _______ _____ _____    ______ ____
ROOT
ATOM      1  C   UNL     1     -11.161  13.556  66.242  0.00  0.00    +0.217 C 
ATOM      2  O   UNL     1      -9.971  14.268  66.033  0.00  0.00    -0.211 OA
ENDROOT
BRANCH   1   3
ATOM      3  P   UNL     1     -11.965  13.390  64.631  0.00  0.00    +0.151 P 
ATOM      4  O   UNL     1     -13.265  12.294  64.687  0.00  0.00    -0.355 OA
ATOM      5  O   UNL     1     -12.538  14.890  64.071  0.00  0.00    -0.355 OA
ATOM      6  O   UNL     1     -10.986  12.895  63.577  0.00  0.00    -0.457 OA
ENDBRANCH   1   3
BRANCH   1   7
ATOM      7  P   UNL     1     -10.812  11.897  66.847  0.00  0.00    +0.151 P 
ATOM      8  O   UNL     1     -10.461  10.804  65.623  0.00  0.00    -0.355 OA
ATOM      9  O   UNL     1     -12.165  11.416  67.758  0.00  0.00    -0.355 OA
ATOM     10  O   UNL     1      -9.639  11.954  67.812  0.00  0.00    -0.457 OA
ENDBRANCH   1   7
BRANCH   1  11
ATOM     11  C   UNL     1     -11.998  14.370  67.187  0.00  0.00    +0.065 C 
BRANCH  11  13
ATOM     12  N   UNL     1     -11.708  16.221  68.786  0.00  0.00    -0.131 NA
ATOM     13  C   UNL     1     -11.098  15.479  67.714  0.00  0.00    +0.113 C 
ENDBRANCH  11  13
ENDBRANCH   1  11
TORSDOF 4
ENDMDL
MODEL 6
REMARK VINA RESULT:      -4.5      3.160      4.221
REMARK  Name = 
REMARK  4 active torsions:
REMARK  status: ('A' for Active; 'I' for Inactive)
REMARK    1  A    between atoms: C_2  and  C_3
REMARK    2  A    between atoms: C_3  and  C_4
REMARK    3  A    between atoms: C_4  and  P_6
REMARK    4  A    between atoms: C_4  and  P_10
REMARK                            x       y       z     vdW  Elec       q    Type
REMARK                         _______ _______ _______ _____ _____    ______ ____
ROOT
ATOM      1  C   UNL     1     -10.799  14.920  66.740  0.00  0.00    +0.217 C 
ATOM      2  O   UNL     1      -9.895  13.885  66.455  0.00  0.00    -0.211 OA
ENDROOT
BRANCH   1   3
ATOM      3  P   UNL     1     -10.807  15.135  68.535  0.00  0.00    +0.151 P 
ATOM      4  O   UNL     1      -9.329  15.759  69.100  0.00  0.00    -0.355 OA
ATOM      5  O   UNL     1     -12.063  16.171  69.026  0.00  0.00    -0.355 OA
ATOM      6  O   UNL     1     -11.053  13.811  69.245  0.00  0.00    -0.457 OA
ENDBRANCH   1   3
BRANCH   1   7
ATOM      7  P   UNL     1     -10.244  16.469  66.010  0.00  0.00    +0.151 P 
ATOM      8  O   UNL     1     -10.578  17.809  66.965  0.00  0.00    -0.355 OA
ATOM      9  O   UNL     1     -10.980  16.580  64.482  0.00  0.00    -0.355 OA
ATOM     10  O   UNL     1      -8.745  16.396  65.765  0.00  0.00    -0.457 OA
ENDBRANCH   1   7
BRANCH   1  11
ATOM     11  C   UNL     1     -12.144  14.476  66.240  0.00  0.00    +0.065 C 
BRANCH  11  13
ATOM     12  N   UNL     1     -12.979  12.645  64.818  0.00  0.00    -0.131 NA
ATOM     13  C   UNL     1     -11.977  13.035  65.776  0.00  0.00    +0.113 C 
ENDBRANCH  11  13
ENDBRANCH   1  11
TORSDOF 4
ENDMDL
MODEL 7
REMARK VINA RESULT:      -4.4      2.609      3.509
REMARK  Name = 
REMARK  4 active torsions:
REMARK  status: ('A' for Active; 'I' for Inactive)
REMARK    1  A    between atoms: C_2  and  C_3
REMARK    2  A    between atoms: C_3  and  C_4
REMARK    3  A    between atoms: C_4  and  P_6
REMARK    4  A    between atoms: C_4  and  P_10
REMARK                            x       y       z     vdW  Elec       q    Type
REMARK                         _______ _______ _______ _____ _____    ______ ____
ROOT
ATOM      1  C   UNL     1     -11.041  13.980  65.739  0.00  0.00    +0.217 C 
ATOM      2  O   UNL     1     -10.150  13.185  65.003  0.00  0.00    -0.211 OA
ENDROOT
BRANCH   1   3
ATOM      3  P   UNL     1     -11.252  13.183  67.349  0.00  0.00    +0.151 P 
ATOM      4  O   UNL     1     -11.813  11.585  67.191  0.00  0.00    -0.355 OA
ATOM      5  O   UNL     1      -9.794  13.168  68.224  0.00  0.00    -0.355 OA
ATOM      6  O   UNL     1     -12.250  13.943  68.210  0.00  0.00    -0.457 OA
ENDBRANCH   1   3
BRANCH   1   7
ATOM      7  P   UNL     1     -10.344  15.614  66.031  0.00  0.00    +0.151 P 
ATOM      8  O   UNL     1     -10.823  16.288  67.491  0.00  0.00    -0.355 OA
ATOM      9  O   UNL     1     -10.796  16.580  64.707  0.00  0.00    -0.355 OA
ATOM     10  O   UNL     1      -8.827  15.522  66.002  0.00  0.00    -0.457 OA
ENDBRANCH   1   7
BRANCH   1  11
ATOM     11  C   UNL     1     -12.333  14.012  64.975  0.00  0.00    +0.065 C 
BRANCH  11  13
ATOM     12  N   UNL     1     -13.040  12.101  63.591  0.00  0.00    -0.131 NA
ATOM     13  C   UNL     1     -12.108  13.192  63.713  0.00  0.00    +0.113 C 
ENDBRANCH  11  13
ENDBRANCH   1  11
TORSDOF 4
ENDMDL
MODEL 8
REMARK VINA RESULT:      -4.4      2.541      4.160
REMARK  Name = 
REMARK  4 active torsions:
REMARK  status: ('A' for Active; 'I' for Inactive)
REMARK    1  A    between atoms: C_2  and  C_3
REMARK    2  A    between atoms: C_3  and  C_4
REMARK    3  A    between atoms: C_4  and  P_6
REMARK    4  A    between atoms: C_4  and  P_10
REMARK                            x       y       z     vdW  Elec       q    Type
REMARK                         _______ _______ _______ _____ _____    ______ ____
ROOT
ATOM      1  C   UNL     1     -11.530  13.877  65.836  0.00  0.00    +0.217 C 
ATOM      2  O   UNL     1     -12.853  14.251  65.560  0.00  0.00    -0.211 OA
ENDROOT
BRANCH   1   3
ATOM      3  P   UNL     1     -10.562  15.401  65.941  0.00  0.00    +0.151 P 
ATOM      4  O   UNL     1     -10.922  16.464  64.663  0.00  0.00    -0.355 OA
ATOM      5  O   UNL     1     -10.835  16.204  67.415  0.00  0.00    -0.355 OA
ATOM      6  O   UNL     1      -9.069  15.107  65.894  0.00  0.00    -0.457 OA
ENDBRANCH   1   3
BRANCH   1   7
ATOM      7  P   UNL     1     -11.420  13.055  67.434  0.00  0.00    +0.151 P 
ATOM      8  O   UNL     1     -12.239  13.865  68.655  0.00  0.00    -0.355 OA
ATOM      9  O   UNL     1      -9.765  12.887  67.784  0.00  0.00    -0.355 OA
ATOM     10  O   UNL     1     -11.981  11.648  67.310  0.00  0.00    -0.457 OA
ENDBRANCH   1   7
BRANCH   1  11
ATOM     11  C   UNL     1     -11.069  13.018  64.693  0.00  0.00    +0.065 C 
BRANCH  11  13
ATOM     12  N   UNL     1     -12.789  11.895  63.334  0.00  0.00    -0.131 NA
ATOM     13  C   UNL     1     -12.127  13.144  63.606  0.00  0.00    +0.113 C 
ENDBRANCH  11  13
ENDBRANCH   1  11
TORSDOF 4
ENDMDL
MODEL 9
REMARK VINA RESULT:      -4.2      9.448     10.846
REMARK  Name = 
REMARK  4 active torsions:
REMARK  status: ('A' for Active; 'I' for Inactive)
REMARK    1  A    between atoms: C_2  and  C_3
REMARK    2  A    between atoms: C_3  and  C_4
REMARK    3  A    between atoms: C_4  and  P_6
REMARK    4  A    between atoms: C_4  and  P_10
REMARK                            x       y       z     vdW  Elec       q    Type
REMARK                         _______ _______ _______ _____ _____    ______ ____
ROOT
ATOM      1  C   UNL     1      -4.950  20.243  70.296  0.00  0.00    +0.217 C 
ATOM      2  O   UNL     1      -6.252  20.439  70.779  0.00  0.00    -0.211 OA
ENDROOT
BRANCH   1   3
ATOM      3  P   UNL     1      -3.826  21.024  71.477  0.00  0.00    +0.151 P 
ATOM      4  O   UNL     1      -2.392  21.549  70.728  0.00  0.00    -0.355 OA
ATOM      5  O   UNL     1      -4.562  22.352  72.242  0.00  0.00    -0.355 OA
ATOM      6  O   UNL     1      -3.442  20.060  72.590  0.00  0.00    -0.457 OA
ENDBRANCH   1   3
BRANCH   1   7
ATOM      7  P   UNL     1      -4.547  18.489  70.244  0.00  0.00    +0.151 P 
ATOM      8  O   UNL     1      -5.145  17.711  68.882  0.00  0.00    -0.355 OA
ATOM      9  O   UNL     1      -5.151  17.807  71.680  0.00  0.00    -0.355 OA
ATOM     10  O   UNL     1      -3.037  18.323  70.287  0.00  0.00    -0.457 OA
ENDBRANCH   1   7
BRANCH   1  11
ATOM     11  C   UNL     1      -4.876  20.909  68.952  0.00  0.00    +0.065 C 
BRANCH  11  13
ATOM     12  N   UNL     1      -6.263  20.633  66.935  0.00  0.00    -0.131 NA
ATOM     13  C   UNL     1      -6.277  20.841  68.360  0.00  0.00    +0.113 C 
ENDBRANCH  11  13
ENDBRANCH   1  11
TORSDOF 4
ENDMDL
