MODEL 1
REMARK VINA RESULT:      -4.3      0.000      0.000
REMARK  Name = 
REMARK  1 active torsions:
REMARK  status: ('A' for Active; 'I' for Inactive)
REMARK    1  A    between atoms: C_2  and  CA_4
REMARK                            x       y       z     vdW  Elec       q    Type
REMARK                         _______ _______ _______ _____ _____    ______ ____
ROOT
ATOM      1  CA  PRO A   1     -13.986  15.150  71.344  0.00  0.00    +0.176 C 
ATOM      2  N   PRO A   1     -14.217  15.954  72.672  0.00  0.00    -0.208 NA
ATOM      3  CD  PRO A   1     -13.025  15.922  73.372  0.00  0.00    +0.089 C 
ATOM      4  CG  PRO A   1     -11.908  15.338  72.584  0.00  0.00    +0.021 C 
ATOM      5  CB  PRO A   1     -12.422  15.634  71.208  0.00  0.00    +0.030 C 
ENDROOT
BRANCH   1   7
ATOM      6  O   PRO A   1     -13.900  13.554  72.687  0.00  0.00    -0.244 OA
ATOM      7  C   PRO A   1     -13.593  13.786  72.118  0.00  0.00    +0.380 C 
ATOM      8  OXT PRO A   1     -12.761  13.044  71.263  0.00  0.00    -0.244 OA
ENDBRANCH   1   7
TORSDOF 1
ENDMDL
MODEL 2
REMARK VINA RESULT:      -4.1      7.468      8.256
REMARK  Name = 
REMARK  1 active torsions:
REMARK  status: ('A' for Active; 'I' for Inactive)
REMARK    1  A    between atoms: C_2  and  CA_4
REMARK                            x       y       z     vdW  Elec       q    Type
REMARK                         _______ _______ _______ _____ _____    ______ ____
ROOT
ATOM      1  CA  PRO A   1     -12.422  13.458  65.593  0.00  0.00    +0.176 C 
ATOM      2  N   PRO A   1     -13.166  12.496  64.600  0.00  0.00    -0.208 NA
ATOM      3  CD  PRO A   1     -12.268  12.187  63.595  0.00  0.00    +0.089 C 
ATOM      4  CG  PRO A   1     -10.894  12.679  63.876  0.00  0.00    +0.021 C 
ATOM      5  CB  PRO A   1     -10.970  12.722  65.371  0.00  0.00    +0.030 C 
ENDROOT
BRANCH   1   7
ATOM      6  O   PRO A   1     -12.578  14.760  63.969  0.00  0.00    -0.244 OA
ATOM      7  C   PRO A   1     -12.135  14.573  64.459  0.00  0.00    +0.380 C 
ATOM      8  OXT PRO A   1     -10.983  15.278  64.847  0.00  0.00    -0.244 OA
ENDBRANCH   1   7
TORSDOF 1
ENDMDL
MODEL 3
REMARK VINA RESULT:      -3.9      1.826      2.506
REMARK  Name = 
REMARK  1 active torsions:
REMARK  status: ('A' for Active; 'I' for Inactive)
REMARK    1  A    between atoms: C_2  and  CA_4
REMARK                            x       y       z     vdW  Elec       q    Type
REMARK                         _______ _______ _______ _____ _____    ______ ____
ROOT
ATOM      1  CA  PRO A   1     -13.360  14.195  72.680  0.00  0.00    +0.176 C 
ATOM      2  N   PRO A   1     -12.564  13.893  71.362  0.00  0.00    -0.208 NA
ATOM      3  CD  PRO A   1     -11.844  15.035  71.060  0.00  0.00    +0.089 C 
ATOM      4  CG  PRO A   1     -11.899  16.056  72.138  0.00  0.00    +0.021 C 
ATOM      5  CB  PRO A   1     -12.171  15.146  73.297  0.00  0.00    +0.030 C 
ENDROOT
BRANCH   1   7
ATOM      6  O   PRO A   1     -14.458  15.446  71.420  0.00  0.00    -0.244 OA
ATOM      7  C   PRO A   1     -14.154  15.447  72.036  0.00  0.00    +0.380 C 
ATOM      8  OXT PRO A   1     -14.365  16.383  73.062  0.00  0.00    -0.244 OA
ENDBRANCH   1   7
TORSDOF 1
ENDMDL
MODEL 4
REMARK VINA RESULT:      -3.9      1.647      2.402
REMARK  Name = 
REMARK  1 active torsions:
REMARK  status: ('A' for Active; 'I' for Inactive)
REMARK    1  A    between atoms: C_2  and  CA_4
REMARK                            x       y       z     vdW  Elec       q    Type
REMARK                         _______ _______ _______ _____ _____    ______ ____
ROOT
ATOM      1  CA  PRO A   1     -12.969  15.977  72.699  0.00  0.00    +0.176 C 
ATOM      2  N   PRO A   1     -14.492  15.925  72.323  0.00  0.00    -0.208 NA
ATOM      3  CD  PRO A   1     -14.720  14.685  71.753  0.00  0.00    +0.089 C 
ATOM      4  CG  PRO A   1     -13.551  13.775  71.862  0.00  0.00    +0.021 C 
ATOM      5  CB  PRO A   1     -12.905  14.378  73.072  0.00  0.00    +0.030 C 
ENDROOT
BRANCH   1   7
ATOM      6  O   PRO A   1     -12.781  16.001  70.620  0.00  0.00    -0.244 OA
ATOM      7  C   PRO A   1     -12.480  15.736  71.177  0.00  0.00    +0.380 C 
ATOM      8  OXT PRO A   1     -11.194  15.172  71.235  0.00  0.00    -0.244 OA
ENDBRANCH   1   7
TORSDOF 1
ENDMDL
MODEL 5
REMARK VINA RESULT:      -3.8      1.830      2.574
REMARK  Name = 
REMARK  1 active torsions:
REMARK  status: ('A' for Active; 'I' for Inactive)
REMARK    1  A    between atoms: C_2  and  CA_4
REMARK                            x       y       z     vdW  Elec       q    Type
REMARK                         _______ _______ _______ _____ _____    ______ ____
ROOT
ATOM      1  CA  PRO A   1     -13.900  15.584  72.476  0.00  0.00    +0.176 C 
ATOM      2  N   PRO A   1     -13.541  15.829  70.968  0.00  0.00    -0.208 NA
ATOM      3  CD  PRO A   1     -12.652  14.835  70.602  0.00  0.00    +0.089 C 
ATOM      4  CG  PRO A   1     -12.489  13.791  71.647  0.00  0.00    +0.021 C 
ATOM      5  CB  PRO A   1     -13.812  13.950  72.333  0.00  0.00    +0.030 C 
ENDROOT
BRANCH   1   7
ATOM      6  O   PRO A   1     -11.902  16.147  72.702  0.00  0.00    -0.244 OA
ATOM      7  C   PRO A   1     -12.366  15.716  72.968  0.00  0.00    +0.380 C 
ATOM      8  OXT PRO A   1     -12.260  15.041  74.196  0.00  0.00    -0.244 OA
ENDBRANCH   1   7
TORSDOF 1
ENDMDL
MODEL 6
REMARK VINA RESULT:      -3.7      7.551      8.198
REMARK  Name = 
REMARK  1 active torsions:
REMARK  status: ('A' for Active; 'I' for Inactive)
REMARK    1  A    between atoms: C_2  and  CA_4
REMARK                            x       y       z     vdW  Elec       q    Type
REMARK                         _______ _______ _______ _____ _____    ______ ____
ROOT
ATOM      1  CA  PRO A   1     -10.768  12.688  64.115  0.00  0.00    +0.176 C 
ATOM      2  N   PRO A   1     -10.476  14.103  64.727  0.00  0.00    -0.208 NA
ATOM      3  CD  PRO A   1     -11.473  14.351  65.653  0.00  0.00    +0.089 C 
ATOM      4  CG  PRO A   1     -12.339  13.168  65.901  0.00  0.00    +0.021 C 
ATOM      5  CB  PRO A   1     -11.366  12.093  65.524  0.00  0.00    +0.030 C 
ENDROOT
BRANCH   1   7
ATOM      6  O   PRO A   1     -12.390  13.730  63.314  0.00  0.00    -0.244 OA
ATOM      7  C   PRO A   1     -12.228  13.112  63.567  0.00  0.00    +0.380 C 
ATOM      8  OXT PRO A   1     -12.979  11.934  63.418  0.00  0.00    -0.244 OA
ENDBRANCH   1   7
TORSDOF 1
ENDMDL
MODEL 7
REMARK VINA RESULT:      -3.5      6.256      6.916
REMARK  Name = 
REMARK  1 active torsions:
REMARK  status: ('A' for Active; 'I' for Inactive)
REMARK    1  A    between atoms: C_2  and  CA_4
REMARK                            x       y       z     vdW  Elec       q    Type
REMARK                         _______ _______ _______ _____ _____    ______ ____
ROOT
ATOM      1  CA  PRO A   1     -11.132  13.742  64.897  0.00  0.00    +0.176 C 
ATOM      2  N   PRO A   1     -10.942  14.715  66.113  0.00  0.00    -0.208 NA
ATOM      3  CD  PRO A   1     -11.394  14.046  67.236  0.00  0.00    +0.089 C 
ATOM      4  CG  PRO A   1     -11.708  12.618  66.970  0.00  0.00    +0.021 C 
ATOM      5  CB  PRO A   1     -10.807  12.403  65.792  0.00  0.00    +0.030 C 
ENDROOT
BRANCH   1   7
ATOM      6  O   PRO A   1     -13.144  14.130  65.297  0.00  0.00    -0.244 OA
ATOM      7  C   PRO A   1     -12.728  13.613  65.117  0.00  0.00    +0.380 C 
ATOM      8  OXT PRO A   1     -13.127  12.376  64.584  0.00  0.00    -0.244 OA
ENDBRANCH   1   7
TORSDOF 1
ENDMDL
MODEL 8
REMARK VINA RESULT:      -3.5     10.039     10.731
REMARK  Name = 
REMARK  1 active torsions:
REMARK  status: ('A' for Active; 'I' for Inactive)
REMARK    1  A    between atoms: C_2  and  CA_4
REMARK                            x       y       z     vdW  Elec       q    Type
REMARK                         _______ _______ _______ _____ _____    ______ ____
ROOT
ATOM      1  CA  PRO A   1      -3.551  20.447  70.413  0.00  0.00    +0.176 C 
ATOM      2  N   PRO A   1      -3.852  18.908  70.462  0.00  0.00    -0.208 NA
ATOM      3  CD  PRO A   1      -5.167  18.770  70.869  0.00  0.00    +0.089 C 
ATOM      4  CG  PRO A   1      -5.892  20.066  70.928  0.00  0.00    +0.021 C 
ATOM      5  CB  PRO A   1      -5.074  20.829  69.931  0.00  0.00    +0.030 C 
ENDROOT
BRANCH   1   7
ATOM      6  O   PRO A   1      -3.715  20.238  72.483  0.00  0.00    -0.244 OA
ATOM      7  C   PRO A   1      -3.891  20.668  71.977  0.00  0.00    +0.380 C 
ATOM      8  OXT PRO A   1      -4.313  22.000  72.131  0.00  0.00    -0.244 OA
ENDBRANCH   1   7
TORSDOF 1
ENDMDL
MODEL 9
REMARK VINA RESULT:      -3.4      1.193      2.122
REMARK  Name = 
REMARK  1 active torsions:
REMARK  status: ('A' for Active; 'I' for Inactive)
REMARK    1  A    between atoms: C_2  and  CA_4
REMARK                            x       y       z     vdW  Elec       q    Type
REMARK                         _______ _______ _______ _____ _____    ______ ____
ROOT
ATOM      1  CA  PRO A   1     -12.730  14.668  73.193  0.00  0.00    +0.176 C 
ATOM      2  N   PRO A   1     -11.681  15.201  72.154  0.00  0.00    -0.208 NA
ATOM      3  CD  PRO A   1     -12.385  15.547  71.016  0.00  0.00    +0.089 C 
ATOM      4  CG  PRO A   1     -13.858  15.495  71.209  0.00  0.00    +0.021 C 
ATOM      5  CB  PRO A   1     -13.899  15.708  72.692  0.00  0.00    +0.030 C 
ENDROOT
BRANCH   1   7
ATOM      6  O   PRO A   1     -12.835  13.097  71.822  0.00  0.00    -0.244 OA
ATOM      7  C   PRO A   1     -13.241  13.481  72.222  0.00  0.00    +0.380 C 
ATOM      8  OXT PRO A   1     -14.567  13.188  72.580  0.00  0.00    -0.244 OA
ENDBRANCH   1   7
TORSDOF 1
ENDMDL
