MODEL 1
REMARK VINA RESULT:      -6.8      0.000      0.000
REMARK  Name = 
REMARK  7 active torsions:
REMARK  status: ('A' for Active; 'I' for Inactive)
REMARK    1  A    between atoms: N_2  and  C_3
REMARK    2  A    between atoms: C_3  and  C_4
REMARK    3  A    between atoms: C_4  and  C_5
REMARK    4  A    between atoms: C_5  and  O_6
REMARK    5  A    between atoms: C_5  and  C_17
REMARK    6  A    between atoms: O_6  and  C_7
REMARK    7  A    between atoms: C_10  and  C_11
REMARK                            x       y       z     vdW  Elec       q    Type
REMARK                         _______ _______ _______ _____ _____    ______ ____
ROOT
ATOM      1  C   UNL     1     -12.030  15.536  69.185  0.00  0.00    +0.190 C 
ENDROOT
BRANCH   1   2
ATOM      2  C   UNL     1     -12.140  15.120  70.774  0.00  0.00    +0.017 A 
ATOM      3  C   UNL     1     -13.085  14.212  71.103  0.00  0.00    -0.001 A 
ATOM      4  C   UNL     1     -13.424  14.132  72.452  0.00  0.00    -0.000 A 
ATOM      5  C   UNL     1     -13.369  15.342  73.136  0.00  0.00    -0.000 A 
ATOM      6  C   UNL     1     -12.224  16.100  72.909  0.00  0.00    -0.000 A 
ATOM      7  C   UNL     1     -11.658  16.070  71.637  0.00  0.00    -0.001 A 
ENDBRANCH   1   2
BRANCH   1   8
ATOM      8  C   UNL     1     -10.523  16.251  69.424  0.00  0.00    +0.067 C 
BRANCH   8   9
ATOM      9  C   UNL     1     -10.281  16.854  68.044  0.00  0.00    +0.093 C 
BRANCH   9  11
ATOM     10  C   UNL     1     -10.549  18.644  67.534  0.00  0.00    +0.107 C 
ATOM     11  N   UNL     1     -10.550  18.271  68.029  0.00  0.00    -0.216 NA
ENDBRANCH   9  11
ENDBRANCH   8   9
ENDBRANCH   1   8
BRANCH   1  12
ATOM     12  O   UNL     1     -11.391  14.157  68.778  0.00  0.00    -0.475 OA
BRANCH  12  13
ATOM     13  C   UNL     1     -12.013  13.535  67.714  0.00  0.00    +0.139 A 
ATOM     14  C   UNL     1     -11.514  12.286  67.357  0.00  0.00    +0.037 A 
ATOM     15  C   UNL     1     -11.268  11.919  66.049  0.00  0.00    +0.007 A 
ATOM     16  C   UNL     1     -11.832  12.649  65.043  0.00  0.00    +0.072 A 
ATOM     17  C   UNL     1     -12.437  13.842  65.343  0.00  0.00    +0.007 A 
ATOM     18  C   UNL     1     -12.323  14.331  66.616  0.00  0.00    +0.037 A 
BRANCH  16  19
ATOM     19  C   UNL     1     -12.070  12.073  63.708  0.00  0.00    +0.419 C 
ATOM     20  F   UNL     1     -11.997  13.115  62.788  0.00  0.00    -0.166 F 
ATOM     21  F   UNL     1     -11.132  11.130  63.382  0.00  0.00    -0.166 F 
ATOM     22  F   UNL     1     -13.341  11.511  63.663  0.00  0.00    -0.166 F 
ENDBRANCH  16  19
ENDBRANCH  12  13
ENDBRANCH   1  12
TORSDOF 7
ENDMDL
MODEL 2
REMARK VINA RESULT:      -6.8      4.127      6.788
REMARK  Name = 
REMARK  7 active torsions:
REMARK  status: ('A' for Active; 'I' for Inactive)
REMARK    1  A    between atoms: N_2  and  C_3
REMARK    2  A    between atoms: C_3  and  C_4
REMARK    3  A    between atoms: C_4  and  C_5
REMARK    4  A    between atoms: C_5  and  O_6
REMARK    5  A    between atoms: C_5  and  C_17
REMARK    6  A    between atoms: O_6  and  C_7
REMARK    7  A    between atoms: C_10  and  C_11
REMARK                            x       y       z     vdW  Elec       q    Type
REMARK                         _______ _______ _______ _____ _____    ______ ____
ROOT
ATOM      1  C   UNL     1     -10.011  14.033  66.923  0.00  0.00    +0.190 C 
ENDROOT
BRANCH   1   2
ATOM      2  C   UNL     1     -10.782  12.841  66.089  0.00  0.00    +0.017 A 
ATOM      3  C   UNL     1     -10.004  11.973  65.406  0.00  0.00    -0.001 A 
ATOM      4  C   UNL     1     -10.638  11.209  64.429  0.00  0.00    -0.000 A 
ATOM      5  C   UNL     1     -11.680  11.858  63.774  0.00  0.00    -0.000 A 
ATOM      6  C   UNL     1     -12.574  12.530  64.601  0.00  0.00    -0.000 A 
ATOM      7  C   UNL     1     -12.075  13.143  65.748  0.00  0.00    -0.001 A 
ENDBRANCH   1   2
BRANCH   1   8
ATOM      8  C   UNL     1     -10.196  15.117  65.646  0.00  0.00    +0.067 C 
BRANCH   8   9
ATOM      9  C   UNL     1      -9.245  16.226  66.084  0.00  0.00    +0.093 C 
BRANCH   9  11
ATOM     10  C   UNL     1     -10.142  17.852  66.380  0.00  0.00    +0.107 C 
ATOM     11  N   UNL     1      -9.847  17.529  65.941  0.00  0.00    -0.216 NA
ENDBRANCH   9  11
ENDBRANCH   8   9
ENDBRANCH   1   8
BRANCH   1  12
ATOM     12  O   UNL     1     -11.334  14.521  67.622  0.00  0.00    -0.475 OA
BRANCH  12  13
ATOM     13  C   UNL     1     -11.248  14.615  68.997  0.00  0.00    +0.139 A 
ATOM     14  C   UNL     1     -12.065  13.753  69.722  0.00  0.00    +0.037 A 
ATOM     15  C   UNL     1     -12.814  14.161  70.808  0.00  0.00    +0.007 A 
ATOM     16  C   UNL     1     -12.509  15.348  71.411  0.00  0.00    +0.072 A 
ATOM     17  C   UNL     1     -11.624  16.198  70.800  0.00  0.00    +0.007 A 
ATOM     18  C   UNL     1     -11.196  15.897  69.536  0.00  0.00    +0.037 A 
BRANCH  16  19
ATOM     19  C   UNL     1     -12.861  15.615  72.817  0.00  0.00    +0.419 C 
ATOM     20  F   UNL     1     -14.177  16.065  72.835  0.00  0.00    -0.166 F 
ATOM     21  F   UNL     1     -12.768  14.490  73.591  0.00  0.00    -0.166 F 
ATOM     22  F   UNL     1     -12.029  16.608  73.324  0.00  0.00    -0.166 F 
ENDBRANCH  16  19
ENDBRANCH  12  13
ENDBRANCH   1  12
TORSDOF 7
ENDMDL
MODEL 3
REMARK VINA RESULT:      -6.6      4.167      6.572
REMARK  Name = 
REMARK  7 active torsions:
REMARK  status: ('A' for Active; 'I' for Inactive)
REMARK    1  A    between atoms: N_2  and  C_3
REMARK    2  A    between atoms: C_3  and  C_4
REMARK    3  A    between atoms: C_4  and  C_5
REMARK    4  A    between atoms: C_5  and  O_6
REMARK    5  A    between atoms: C_5  and  C_17
REMARK    6  A    between atoms: O_6  and  C_7
REMARK    7  A    between atoms: C_10  and  C_11
REMARK                            x       y       z     vdW  Elec       q    Type
REMARK                         _______ _______ _______ _____ _____    ______ ____
ROOT
ATOM      1  C   UNL     1     -10.661  16.076  66.754  0.00  0.00    +0.190 C 
ENDROOT
BRANCH   1   2
ATOM      2  C   UNL     1      -9.797  17.449  67.033  0.00  0.00    +0.017 A 
ATOM      3  C   UNL     1      -8.604  17.304  67.651  0.00  0.00    -0.001 A 
ATOM      4  C   UNL     1      -8.051  18.456  68.207  0.00  0.00    -0.000 A 
ATOM      5  C   UNL     1      -8.980  19.358  68.714  0.00  0.00    -0.000 A 
ATOM      6  C   UNL     1     -10.063  19.624  67.882  0.00  0.00    -0.000 A 
ATOM      7  C   UNL     1     -10.559  18.587  67.095  0.00  0.00    -0.001 A 
ENDBRANCH   1   2
BRANCH   1   8
ATOM      8  C   UNL     1      -9.329  15.320  66.052  0.00  0.00    +0.067 C 
BRANCH   8   9
ATOM      9  C   UNL     1      -9.847  13.889  65.945  0.00  0.00    +0.093 C 
BRANCH   9  11
ATOM     10  C   UNL     1     -10.542  13.070  64.400  0.00  0.00    +0.107 C 
ATOM     11  N   UNL     1     -10.415  13.626  64.645  0.00  0.00    -0.216 NA
ENDBRANCH   9  11
ENDBRANCH   8   9
ENDBRANCH   1   8
BRANCH   1  12
ATOM     12  O   UNL     1     -10.339  15.481  68.175  0.00  0.00    -0.475 OA
BRANCH  12  13
ATOM     13  C   UNL     1     -11.415  15.466  69.041  0.00  0.00    +0.139 A 
ATOM     14  C   UNL     1     -11.345  16.343  70.119  0.00  0.00    +0.037 A 
ATOM     15  C   UNL     1     -11.665  15.975  71.410  0.00  0.00    +0.007 A 
ATOM     16  C   UNL     1     -12.387  14.834  71.611  0.00  0.00    +0.072 A 
ATOM     17  C   UNL     1     -12.585  13.976  70.560  0.00  0.00    +0.007 A 
ATOM     18  C   UNL     1     -11.926  14.218  69.386  0.00  0.00    +0.037 A 
BRANCH  16  19
ATOM     19  C   UNL     1     -13.201  14.635  72.824  0.00  0.00    +0.419 C 
ATOM     20  F   UNL     1     -13.771  13.369  72.736  0.00  0.00    -0.166 F 
ATOM     21  F   UNL     1     -12.445  14.700  73.964  0.00  0.00    -0.166 F 
ATOM     22  F   UNL     1     -14.209  15.591  72.870  0.00  0.00    -0.166 F 
ENDBRANCH  16  19
ENDBRANCH  12  13
ENDBRANCH   1  12
TORSDOF 7
ENDMDL
MODEL 4
REMARK VINA RESULT:      -6.5      4.712      7.173
REMARK  Name = 
REMARK  7 active torsions:
REMARK  status: ('A' for Active; 'I' for Inactive)
REMARK    1  A    between atoms: N_2  and  C_3
REMARK    2  A    between atoms: C_3  and  C_4
REMARK    3  A    between atoms: C_4  and  C_5
REMARK    4  A    between atoms: C_5  and  O_6
REMARK    5  A    between atoms: C_5  and  C_17
REMARK    6  A    between atoms: O_6  and  C_7
REMARK    7  A    between atoms: C_10  and  C_11
REMARK                            x       y       z     vdW  Elec       q    Type
REMARK                         _______ _______ _______ _____ _____    ______ ____
ROOT
ATOM      1  C   UNL     1     -11.751  14.206  67.021  0.00  0.00    +0.190 C 
ENDROOT
BRANCH   1   2
ATOM      2  C   UNL     1     -10.176  14.436  66.605  0.00  0.00    +0.017 A 
ATOM      3  C   UNL     1      -9.253  13.730  67.294  0.00  0.00    -0.001 A 
ATOM      4  C   UNL     1      -7.937  14.178  67.206  0.00  0.00    -0.000 A 
ATOM      5  C   UNL     1      -7.801  15.558  67.095  0.00  0.00    -0.000 A 
ATOM      6  C   UNL     1      -8.644  16.164  66.168  0.00  0.00    -0.000 A 
ATOM      7  C   UNL     1      -9.925  15.643  66.005  0.00  0.00    -0.001 A 
ENDBRANCH   1   2
BRANCH   1   8
ATOM      8  C   UNL     1     -11.733  12.631  66.425  0.00  0.00    +0.067 C 
BRANCH   8   9
ATOM      9  C   UNL     1     -12.436  12.832  65.087  0.00  0.00    +0.093 C 
BRANCH   9  11
ATOM     10  C   UNL     1     -11.858  12.162  63.428  0.00  0.00    +0.107 C 
ATOM     11  N   UNL     1     -11.813  12.063  64.038  0.00  0.00    -0.216 NA
ENDBRANCH   9  11
ENDBRANCH   8   9
ENDBRANCH   1   8
BRANCH   1  12
ATOM     12  O   UNL     1     -11.388  13.735  68.479  0.00  0.00    -0.475 OA
BRANCH  12  13
ATOM     13  C   UNL     1     -12.141  14.330  69.472  0.00  0.00    +0.139 A 
ATOM     14  C   UNL     1     -11.803  15.641  69.794  0.00  0.00    +0.037 A 
ATOM     15  C   UNL     1     -11.682  16.088  71.095  0.00  0.00    +0.007 A 
ATOM     16  C   UNL     1     -12.227  15.345  72.102  0.00  0.00    +0.072 A 
ATOM     17  C   UNL     1     -12.680  14.080  71.827  0.00  0.00    +0.007 A 
ATOM     18  C   UNL     1     -12.433  13.552  70.589  0.00  0.00    +0.037 A 
BRANCH  16  19
ATOM     19  C   UNL     1     -12.612  15.948  73.390  0.00  0.00    +0.419 C 
ATOM     20  F   UNL     1     -12.353  15.006  74.381  0.00  0.00    -0.166 F 
ATOM     21  F   UNL     1     -11.892  17.081  73.660  0.00  0.00    -0.166 F 
ATOM     22  F   UNL     1     -13.971  16.241  73.380  0.00  0.00    -0.166 F 
ENDBRANCH  16  19
ENDBRANCH  12  13
ENDBRANCH   1  12
TORSDOF 7
ENDMDL
MODEL 5
REMARK VINA RESULT:      -6.5      0.836      1.308
REMARK  Name = 
REMARK  7 active torsions:
REMARK  status: ('A' for Active; 'I' for Inactive)
REMARK    1  A    between atoms: N_2  and  C_3
REMARK    2  A    between atoms: C_3  and  C_4
REMARK    3  A    between atoms: C_4  and  C_5
REMARK    4  A    between atoms: C_5  and  O_6
REMARK    5  A    between atoms: C_5  and  C_17
REMARK    6  A    between atoms: O_6  and  C_7
REMARK    7  A    between atoms: C_10  and  C_11
REMARK                            x       y       z     vdW  Elec       q    Type
REMARK                         _______ _______ _______ _____ _____    ______ ____
ROOT
ATOM      1  C   UNL     1     -12.073  15.675  69.199  0.00  0.00    +0.190 C 
ENDROOT
BRANCH   1   2
ATOM      2  C   UNL     1     -12.633  15.722  70.746  0.00  0.00    +0.017 A 
ATOM      3  C   UNL     1     -11.741  16.048  71.708  0.00  0.00    -0.001 A 
ATOM      4  C   UNL     1     -12.102  15.739  73.018  0.00  0.00    -0.000 A 
ATOM      5  C   UNL     1     -12.861  14.581  73.151  0.00  0.00    -0.000 A 
ATOM      6  C   UNL     1     -13.918  14.458  72.254  0.00  0.00    -0.000 A 
ATOM      7  C   UNL     1     -13.745  14.951  70.963  0.00  0.00    -0.001 A 
ENDBRANCH   1   2
BRANCH   1   8
ATOM      8  C   UNL     1     -10.516  16.087  69.695  0.00  0.00    +0.067 C 
BRANCH   8   9
ATOM      9  C   UNL     1     -10.026  16.846  68.467  0.00  0.00    +0.093 C 
BRANCH   9  11
ATOM     10  C   UNL     1      -9.931  18.722  68.368  0.00  0.00    +0.107 C 
ATOM     11  N   UNL     1      -9.827  18.246  68.752  0.00  0.00    -0.216 NA
ENDBRANCH   9  11
ENDBRANCH   8   9
ENDBRANCH   1   8
BRANCH   1  12
ATOM     12  O   UNL     1     -11.762  14.133  69.265  0.00  0.00    -0.475 OA
BRANCH  12  13
ATOM     13  C   UNL     1     -12.089  13.438  68.117  0.00  0.00    +0.139 A 
ATOM     14  C   UNL     1     -11.510  12.180  67.977  0.00  0.00    +0.037 A 
ATOM     15  C   UNL     1     -10.936  11.744  66.800  0.00  0.00    +0.007 A 
ATOM     16  C   UNL     1     -11.226  12.403  65.640  0.00  0.00    +0.072 A 
ATOM     17  C   UNL     1     -11.893  13.599  65.702  0.00  0.00    +0.007 A 
ATOM     18  C   UNL     1     -12.111  14.163  66.930  0.00  0.00    +0.037 A 
BRANCH  16  19
ATOM     19  C   UNL     1     -11.113  11.746  64.326  0.00  0.00    +0.419 C 
ATOM     20  F   UNL     1     -10.219  12.493  63.566  0.00  0.00    -0.166 F 
ATOM     21  F   UNL     1     -10.640  10.465  64.433  0.00  0.00    -0.166 F 
ATOM     22  F   UNL     1     -12.355  11.741  63.700  0.00  0.00    -0.166 F 
ENDBRANCH  16  19
ENDBRANCH  12  13
ENDBRANCH   1  12
TORSDOF 7
ENDMDL
MODEL 6
REMARK VINA RESULT:      -6.4      4.143      5.120
REMARK  Name = 
REMARK  7 active torsions:
REMARK  status: ('A' for Active; 'I' for Inactive)
REMARK    1  A    between atoms: N_2  and  C_3
REMARK    2  A    between atoms: C_3  and  C_4
REMARK    3  A    between atoms: C_4  and  C_5
REMARK    4  A    between atoms: C_5  and  O_6
REMARK    5  A    between atoms: C_5  and  C_17
REMARK    6  A    between atoms: O_6  and  C_7
REMARK    7  A    between atoms: C_10  and  C_11
REMARK                            x       y       z     vdW  Elec       q    Type
REMARK                         _______ _______ _______ _____ _____    ______ ____
ROOT
ATOM      1  C   UNL     1     -12.269  14.213  69.472  0.00  0.00    +0.190 C 
ENDROOT
BRANCH   1   2
ATOM      2  C   UNL     1     -12.660  15.235  70.702  0.00  0.00    +0.017 A 
ATOM      3  C   UNL     1     -11.640  15.697  71.458  0.00  0.00    -0.001 A 
ATOM      4  C   UNL     1     -11.984  16.249  72.690  0.00  0.00    -0.000 A 
ATOM      5  C   UNL     1     -13.079  15.653  73.307  0.00  0.00    -0.000 A 
ATOM      6  C   UNL     1     -14.180  15.439  72.483  0.00  0.00    -0.000 A 
ATOM      7  C   UNL     1     -13.949  15.104  71.151  0.00  0.00    -0.001 A 
ENDBRANCH   1   2
BRANCH   1   8
ATOM      8  C   UNL     1     -10.792  14.987  69.230  0.00  0.00    +0.067 C 
BRANCH   8   9
ATOM      9  C   UNL     1     -11.018  15.589  67.847  0.00  0.00    +0.093 C 
BRANCH   9  11
ATOM     10  C   UNL     1     -10.492  17.349  68.250  0.00  0.00    +0.107 C 
ATOM     11  N   UNL     1     -10.549  16.951  67.778  0.00  0.00    -0.216 NA
ENDBRANCH   9  11
ENDBRANCH   8   9
ENDBRANCH   1   8
BRANCH   1  12
ATOM     12  O   UNL     1     -11.633  13.148  70.441  0.00  0.00    -0.475 OA
BRANCH  12  13
ATOM     13  C   UNL     1     -12.150  11.875  70.304  0.00  0.00    +0.139 A 
ATOM     14  C   UNL     1     -12.984  11.439  71.330  0.00  0.00    +0.037 A 
ATOM     15  C   UNL     1     -12.884  10.185  71.898  0.00  0.00    +0.007 A 
ATOM     16  C   UNL     1     -12.189   9.214  71.237  0.00  0.00    +0.072 A 
ATOM     17  C   UNL     1     -11.431   9.561  70.149  0.00  0.00    +0.007 A 
ATOM     18  C   UNL     1     -11.277  10.889  69.855  0.00  0.00    +0.037 A 
BRANCH  16  19
ATOM     19  C   UNL     1     -12.451   7.782  71.464  0.00  0.00    +0.419 C 
ATOM     20  F   UNL     1     -13.831   7.620  71.532  0.00  0.00    -0.166 F 
ATOM     21  F   UNL     1     -11.965   7.004  70.446  0.00  0.00    -0.166 F 
ATOM     22  F   UNL     1     -11.883   7.390  72.671  0.00  0.00    -0.166 F 
ENDBRANCH  16  19
ENDBRANCH  12  13
ENDBRANCH   1  12
TORSDOF 7
ENDMDL
MODEL 7
REMARK VINA RESULT:      -6.3      3.919      6.452
REMARK  Name = 
REMARK  7 active torsions:
REMARK  status: ('A' for Active; 'I' for Inactive)
REMARK    1  A    between atoms: N_2  and  C_3
REMARK    2  A    between atoms: C_3  and  C_4
REMARK    3  A    between atoms: C_4  and  C_5
REMARK    4  A    between atoms: C_5  and  O_6
REMARK    5  A    between atoms: C_5  and  C_17
REMARK    6  A    between atoms: O_6  and  C_7
REMARK    7  A    between atoms: C_10  and  C_11
REMARK                            x       y       z     vdW  Elec       q    Type
REMARK                         _______ _______ _______ _____ _____    ______ ____
ROOT
ATOM      1  C   UNL     1     -10.735  16.355  67.552  0.00  0.00    +0.190 C 
ENDROOT
BRANCH   1   2
ATOM      2  C   UNL     1      -9.990  17.809  67.749  0.00  0.00    +0.017 A 
ATOM      3  C   UNL     1     -10.627  18.893  67.252  0.00  0.00    -0.001 A 
ATOM      4  C   UNL     1      -9.857  20.043  67.090  0.00  0.00    -0.000 A 
ATOM      5  C   UNL     1      -8.531  19.808  66.743  0.00  0.00    -0.000 A 
ATOM      6  C   UNL     1      -7.887  18.826  67.490  0.00  0.00    -0.000 A 
ATOM      7  C   UNL     1      -8.631  17.726  67.910  0.00  0.00    -0.001 A 
ENDBRANCH   1   2
BRANCH   1   8
ATOM      8  C   UNL     1      -9.674  15.921  66.317  0.00  0.00    +0.067 C 
BRANCH   8   9
ATOM      9  C   UNL     1     -10.665  15.530  65.225  0.00  0.00    +0.093 C 
BRANCH   9  11
ATOM     10  C   UNL     1     -10.405  13.743  64.697  0.00  0.00    +0.107 C 
ATOM     11  N   UNL     1     -10.749  14.098  65.073  0.00  0.00    -0.216 NA
ENDBRANCH   9  11
ENDBRANCH   8   9
ENDBRANCH   1   8
BRANCH   1  12
ATOM     12  O   UNL     1      -9.852  15.655  68.652  0.00  0.00    -0.475 OA
BRANCH  12  13
ATOM     13  C   UNL     1     -10.561  15.214  69.752  0.00  0.00    +0.139 A 
ATOM     14  C   UNL     1     -11.476  14.192  69.522  0.00  0.00    +0.037 A 
ATOM     15  C   UNL     1     -12.758  14.201  70.033  0.00  0.00    +0.007 A 
ATOM     16  C   UNL     1     -13.053  15.048  71.063  0.00  0.00    +0.072 A 
ATOM     17  C   UNL     1     -12.144  16.013  71.412  0.00  0.00    +0.007 A 
ATOM     18  C   UNL     1     -11.041  16.190  70.621  0.00  0.00    +0.037 A 
BRANCH  16  19
ATOM     19  C   UNL     1     -14.165  14.782  71.992  0.00  0.00    +0.419 C 
ATOM     20  F   UNL     1     -14.272  15.884  72.835  0.00  0.00    -0.166 F 
ATOM     21  F   UNL     1     -15.353  14.613  71.333  0.00  0.00    -0.166 F 
ATOM     22  F   UNL     1     -13.879  13.651  72.749  0.00  0.00    -0.166 F 
ENDBRANCH  16  19
ENDBRANCH  12  13
ENDBRANCH   1  12
TORSDOF 7
ENDMDL
MODEL 8
REMARK VINA RESULT:      -6.3      1.616      3.960
REMARK  Name = 
REMARK  7 active torsions:
REMARK  status: ('A' for Active; 'I' for Inactive)
REMARK    1  A    between atoms: N_2  and  C_3
REMARK    2  A    between atoms: C_3  and  C_4
REMARK    3  A    between atoms: C_4  and  C_5
REMARK    4  A    between atoms: C_5  and  O_6
REMARK    5  A    between atoms: C_5  and  C_17
REMARK    6  A    between atoms: O_6  and  C_7
REMARK    7  A    between atoms: C_10  and  C_11
REMARK                            x       y       z     vdW  Elec       q    Type
REMARK                         _______ _______ _______ _____ _____    ______ ____
ROOT
ATOM      1  C   UNL     1     -10.495  14.552  69.106  0.00  0.00    +0.190 C 
ENDROOT
BRANCH   1   2
ATOM      2  C   UNL     1      -9.923  15.865  68.294  0.00  0.00    +0.017 A 
ATOM      3  C   UNL     1     -10.662  16.995  68.364  0.00  0.00    -0.001 A 
ATOM      4  C   UNL     1     -10.390  17.973  67.409  0.00  0.00    -0.000 A 
ATOM      5  C   UNL     1     -10.010  17.478  66.166  0.00  0.00    -0.000 A 
ATOM      6  C   UNL     1      -9.052  16.469  66.197  0.00  0.00    -0.000 A 
ATOM      7  C   UNL     1      -9.088  15.559  67.251  0.00  0.00    -0.001 A 
ENDBRANCH   1   2
BRANCH   1   8
ATOM      8  C   UNL     1     -10.982  15.505  70.407  0.00  0.00    +0.067 C 
BRANCH   8   9
ATOM      9  C   UNL     1     -12.045  14.605  71.027  0.00  0.00    +0.093 C 
BRANCH   9  11
ATOM     10  C   UNL     1     -13.766  15.175  71.530  0.00  0.00    +0.107 C 
ATOM     11  N   UNL     1     -13.177  15.366  71.498  0.00  0.00    -0.216 NA
ENDBRANCH   9  11
ENDBRANCH   8   9
ENDBRANCH   1   8
BRANCH   1  12
ATOM     12  O   UNL     1     -11.910  14.637  68.423  0.00  0.00    -0.475 OA
BRANCH  12  13
ATOM     13  C   UNL     1     -12.129  13.681  67.450  0.00  0.00    +0.139 A 
ATOM     14  C   UNL     1     -11.278  12.580  67.472  0.00  0.00    +0.037 A 
ATOM     15  C   UNL     1     -10.686  12.065  66.336  0.00  0.00    +0.007 A 
ATOM     16  C   UNL     1     -11.189  12.410  65.115  0.00  0.00    +0.072 A 
ATOM     17  C   UNL     1     -12.115  13.417  65.036  0.00  0.00    +0.007 A 
ATOM     18  C   UNL     1     -12.389  14.143  66.164  0.00  0.00    +0.037 A 
BRANCH  16  19
ATOM     19  C   UNL     1     -11.000  11.556  63.929  0.00  0.00    +0.419 C 
ATOM     20  F   UNL     1     -10.578  10.309  64.380  0.00  0.00    -0.166 F 
ATOM     21  F   UNL     1     -12.161  11.399  63.220  0.00  0.00    -0.166 F 
ATOM     22  F   UNL     1     -10.018  12.105  63.112  0.00  0.00    -0.166 F 
ENDBRANCH  16  19
ENDBRANCH  12  13
ENDBRANCH   1  12
TORSDOF 7
ENDMDL
MODEL 9
REMARK VINA RESULT:      -6.3      3.997      6.611
REMARK  Name = 
REMARK  7 active torsions:
REMARK  status: ('A' for Active; 'I' for Inactive)
REMARK    1  A    between atoms: N_2  and  C_3
REMARK    2  A    between atoms: C_3  and  C_4
REMARK    3  A    between atoms: C_4  and  C_5
REMARK    4  A    between atoms: C_5  and  O_6
REMARK    5  A    between atoms: C_5  and  C_17
REMARK    6  A    between atoms: O_6  and  C_7
REMARK    7  A    between atoms: C_10  and  C_11
REMARK                            x       y       z     vdW  Elec       q    Type
REMARK                         _______ _______ _______ _____ _____    ______ ____
ROOT
ATOM      1  C   UNL     1     -11.646  12.882  67.770  0.00  0.00    +0.190 C 
ENDROOT
BRANCH   1   2
ATOM      2  C   UNL     1     -11.773  12.349  66.218  0.00  0.00    +0.017 A 
ATOM      3  C   UNL     1     -10.892  11.402  65.824  0.00  0.00    -0.001 A 
ATOM      4  C   UNL     1     -10.755  11.218  64.450  0.00  0.00    -0.000 A 
ATOM      5  C   UNL     1     -10.901  12.375  63.693  0.00  0.00    -0.000 A 
ATOM      6  C   UNL     1     -11.995  13.168  64.026  0.00  0.00    -0.000 A 
ATOM      7  C   UNL     1     -12.370  13.242  65.366  0.00  0.00    -0.001 A 
ENDBRANCH   1   2
BRANCH   1   8
ATOM      8  C   UNL     1     -11.477  11.309  68.351  0.00  0.00    +0.067 C 
BRANCH   8   9
ATOM      9  C   UNL     1     -11.812  11.520  69.823  0.00  0.00    +0.093 C 
BRANCH   9  11
ATOM     10  C   UNL     1     -11.876  10.071  71.022  0.00  0.00    +0.107 C 
ATOM     11  N   UNL     1     -11.506  10.351  70.610  0.00  0.00    -0.216 NA
ENDBRANCH   9  11
ENDBRANCH   8   9
ENDBRANCH   1   8
BRANCH   1  12
ATOM     12  O   UNL     1     -10.089  13.086  67.665  0.00  0.00    -0.475 OA
BRANCH  12  13
ATOM     13  C   UNL     1      -9.689  14.408  67.654  0.00  0.00    +0.139 A 
ATOM     14  C   UNL     1     -10.505  15.300  68.343  0.00  0.00    +0.037 A 
ATOM     15  C   UNL     1     -10.888  16.522  67.826  0.00  0.00    +0.007 A 
ATOM     16  C   UNL     1     -10.198  17.036  66.767  0.00  0.00    +0.072 A 
ATOM     17  C   UNL     1      -9.296  16.240  66.109  0.00  0.00    +0.007 A 
ATOM     18  C   UNL     1      -9.230  14.914  66.442  0.00  0.00    +0.037 A 
BRANCH  16  19
ATOM     19  C   UNL     1     -10.168  18.483  66.490  0.00  0.00    +0.419 C 
ATOM     20  F   UNL     1     -10.759  19.124  67.574  0.00  0.00    -0.166 F 
ATOM     21  F   UNL     1      -8.889  18.950  66.344  0.00  0.00    -0.166 F 
ATOM     22  F   UNL     1     -10.903  18.752  65.341  0.00  0.00    -0.166 F 
ENDBRANCH  16  19
ENDBRANCH  12  13
ENDBRANCH   1  12
TORSDOF 7
ENDMDL
