MODEL 1
REMARK VINA RESULT:      -6.2      0.000      0.000
REMARK  Name = 
REMARK  6 active torsions:
REMARK  status: ('A' for Active; 'I' for Inactive)
REMARK    1  A    between atoms: C_2  and  N_4
REMARK    2  A    between atoms: N_4  and  C_5
REMARK    3  A    between atoms: C_5  and  C_6
REMARK    4  A    between atoms: C_6  and  C_8
REMARK    5  A    between atoms: C_11  and  N_12
REMARK    6  A    between atoms: N_12  and  S_13
REMARK                            x       y       z     vdW  Elec       q    Type
REMARK                         _______ _______ _______ _____ _____    ______ ____
ROOT
ATOM      1  C   UNL     1     -11.115  14.969  68.655  0.00  0.00    +0.009 A 
ATOM      2  C   UNL     1     -10.749  15.443  67.439  0.00  0.00    -0.000 A 
ATOM      3  C   UNL     1     -11.228  14.707  66.353  0.00  0.00    +0.018 A 
ATOM      4  C   UNL     1     -11.874  13.515  66.536  0.00  0.00    +0.091 A 
ATOM      5  C   UNL     1     -11.654  12.889  67.757  0.00  0.00    +0.018 A 
ATOM      6  C   UNL     1     -11.296  13.637  68.872  0.00  0.00    -0.000 A 
ENDROOT
BRANCH   1   7
ATOM      7  C   UNL     1     -10.670  15.833  69.955  0.00  0.00    +0.192 C 
ATOM      8  O   UNL     1     -10.998  17.154  69.257  0.00  0.00    -0.217 OA
BRANCH   7   9
ATOM      9  C   UNL     1     -12.200  15.739  70.599  0.00  0.00    +0.126 C 
BRANCH   9  10
ATOM     10  N   UNL     1     -11.973  16.121  71.961  0.00  0.00    -0.216 NA
BRANCH  10  12
ATOM     11  C   UNL     1     -13.340  14.155  72.544  0.00  0.00    +0.019 C 
ATOM     12  C   UNL     1     -12.341  15.179  72.956  0.00  0.00    +0.073 C 
ATOM     13  C   UNL     1     -12.508  15.700  74.336  0.00  0.00    +0.019 C 
ENDBRANCH  10  12
ENDBRANCH   9  10
ENDBRANCH   7   9
ENDBRANCH   1   7
BRANCH   4  14
ATOM     14  N   UNL     1     -12.652  12.823  65.596  0.00  0.00    -0.101 NA
BRANCH  14  15
ATOM     15  S   UNL     1     -12.179  12.778  63.951  0.00  0.00    +0.075 S 
ATOM     16  O   UNL     1     -13.008  11.738  63.231  0.00  0.00    -0.153 OA
ATOM     17  O   UNL     1     -12.493  14.105  63.350  0.00  0.00    -0.153 OA
ATOM     18  C   UNL     1     -10.499  12.325  63.692  0.00  0.00    +0.202 C 
ENDBRANCH  14  15
ENDBRANCH   4  14
TORSDOF 6
ENDMDL
MODEL 2
REMARK VINA RESULT:      -5.7      1.761      2.379
REMARK  Name = 
REMARK  6 active torsions:
REMARK  status: ('A' for Active; 'I' for Inactive)
REMARK    1  A    between atoms: C_2  and  N_4
REMARK    2  A    between atoms: N_4  and  C_5
REMARK    3  A    between atoms: C_5  and  C_6
REMARK    4  A    between atoms: C_6  and  C_8
REMARK    5  A    between atoms: C_11  and  N_12
REMARK    6  A    between atoms: N_12  and  S_13
REMARK                            x       y       z     vdW  Elec       q    Type
REMARK                         _______ _______ _______ _____ _____    ______ ____
ROOT
ATOM      1  C   UNL     1     -11.245  14.511  68.878  0.00  0.00    +0.009 A 
ATOM      2  C   UNL     1     -11.574  13.341  69.481  0.00  0.00    -0.000 A 
ATOM      3  C   UNL     1     -11.769  12.267  68.611  0.00  0.00    +0.018 A 
ATOM      4  C   UNL     1     -11.781  12.448  67.254  0.00  0.00    +0.091 A 
ATOM      5  C   UNL     1     -12.020  13.746  66.820  0.00  0.00    +0.018 A 
ATOM      6  C   UNL     1     -11.712  14.825  67.639  0.00  0.00    -0.000 A 
ENDROOT
BRANCH   1   7
ATOM      7  C   UNL     1     -10.914  15.776  69.840  0.00  0.00    +0.192 C 
ATOM      8  O   UNL     1     -11.394  16.774  68.785  0.00  0.00    -0.217 OA
BRANCH   7   9
ATOM      9  C   UNL     1     -12.424  15.706  70.531  0.00  0.00    +0.126 C 
BRANCH   9  10
ATOM     10  N   UNL     1     -12.145  16.051  71.893  0.00  0.00    -0.216 NA
BRANCH  10  12
ATOM     11  C   UNL     1     -12.456  15.545  74.284  0.00  0.00    +0.019 C 
ATOM     12  C   UNL     1     -12.952  15.437  72.884  0.00  0.00    +0.073 C 
ATOM     13  C   UNL     1     -13.559  14.129  72.532  0.00  0.00    +0.019 C 
ENDBRANCH  10  12
ENDBRANCH   9  10
ENDBRANCH   7   9
ENDBRANCH   1   7
BRANCH   4  14
ATOM     14  N   UNL     1     -11.671  11.455  66.269  0.00  0.00    -0.101 NA
BRANCH  14  15
ATOM     15  S   UNL     1     -10.269  11.362  65.292  0.00  0.00    +0.075 S 
ATOM     16  O   UNL     1      -9.097  11.930  66.061  0.00  0.00    -0.153 OA
ATOM     17  O   UNL     1      -9.988   9.921  65.033  0.00  0.00    -0.153 OA
ATOM     18  C   UNL     1     -10.363  12.287  63.799  0.00  0.00    +0.202 C 
ENDBRANCH  14  15
ENDBRANCH   4  14
TORSDOF 6
ENDMDL
MODEL 3
REMARK VINA RESULT:      -5.7      3.192      7.226
REMARK  Name = 
REMARK  6 active torsions:
REMARK  status: ('A' for Active; 'I' for Inactive)
REMARK    1  A    between atoms: C_2  and  N_4
REMARK    2  A    between atoms: N_4  and  C_5
REMARK    3  A    between atoms: C_5  and  C_6
REMARK    4  A    between atoms: C_6  and  C_8
REMARK    5  A    between atoms: C_11  and  N_12
REMARK    6  A    between atoms: N_12  and  S_13
REMARK                            x       y       z     vdW  Elec       q    Type
REMARK                         _______ _______ _______ _____ _____    ______ ____
ROOT
ATOM      1  C   UNL     1     -11.113  13.271  68.103  0.00  0.00    +0.009 A 
ATOM      2  C   UNL     1     -11.516  14.542  67.855  0.00  0.00    -0.000 A 
ATOM      3  C   UNL     1     -11.886  15.272  68.986  0.00  0.00    +0.018 A 
ATOM      4  C   UNL     1     -11.979  14.675  70.215  0.00  0.00    +0.091 A 
ATOM      5  C   UNL     1     -12.112  13.292  70.206  0.00  0.00    +0.018 A 
ATOM      6  C   UNL     1     -11.634  12.551  69.133  0.00  0.00    -0.000 A 
ENDROOT
BRANCH   1   7
ATOM      7  C   UNL     1     -10.580  12.401  66.841  0.00  0.00    +0.192 C 
ATOM      8  O   UNL     1     -11.765  11.438  66.936  0.00  0.00    -0.217 OA
BRANCH   7   9
ATOM      9  C   UNL     1     -11.397  13.373  65.767  0.00  0.00    +0.126 C 
BRANCH   9  10
ATOM     10  N   UNL     1     -10.577  13.278  64.596  0.00  0.00    -0.216 NA
BRANCH  10  12
ATOM     11  C   UNL     1     -12.471  12.137  63.507  0.00  0.00    +0.019 C 
ATOM     12  C   UNL     1     -11.002  12.370  63.593  0.00  0.00    +0.073 C 
ATOM     13  C   UNL     1     -10.161  11.164  63.386  0.00  0.00    +0.019 C 
ENDBRANCH  10  12
ENDBRANCH   9  10
ENDBRANCH   7   9
ENDBRANCH   1   7
BRANCH   4  14
ATOM     14  N   UNL     1     -12.046  15.315  71.462  0.00  0.00    -0.101 NA
BRANCH  14  15
ATOM     15  S   UNL     1     -13.436  15.141  72.447  0.00  0.00    +0.075 S 
ATOM     16  O   UNL     1     -13.346  13.827  73.191  0.00  0.00    -0.153 OA
ATOM     17  O   UNL     1     -13.420  16.238  73.455  0.00  0.00    -0.153 OA
ATOM     18  C   UNL     1     -14.953  15.092  71.558  0.00  0.00    +0.202 C 
ENDBRANCH  14  15
ENDBRANCH   4  14
TORSDOF 6
ENDMDL
MODEL 4
REMARK VINA RESULT:      -5.7      3.283      7.234
REMARK  Name = 
REMARK  6 active torsions:
REMARK  status: ('A' for Active; 'I' for Inactive)
REMARK    1  A    between atoms: C_2  and  N_4
REMARK    2  A    between atoms: N_4  and  C_5
REMARK    3  A    between atoms: C_5  and  C_6
REMARK    4  A    between atoms: C_6  and  C_8
REMARK    5  A    between atoms: C_11  and  N_12
REMARK    6  A    between atoms: N_12  and  S_13
REMARK                            x       y       z     vdW  Elec       q    Type
REMARK                         _______ _______ _______ _____ _____    ______ ____
ROOT
ATOM      1  C   UNL     1     -11.470  12.356  69.246  0.00  0.00    +0.009 A 
ATOM      2  C   UNL     1     -11.974  13.607  69.104  0.00  0.00    -0.000 A 
ATOM      3  C   UNL     1     -12.568  14.134  70.252  0.00  0.00    +0.018 A 
ATOM      4  C   UNL     1     -12.760  13.364  71.368  0.00  0.00    +0.091 A 
ATOM      5  C   UNL     1     -12.739  11.989  71.164  0.00  0.00    +0.018 A 
ATOM      6  C   UNL     1     -12.043  11.453  70.088  0.00  0.00    -0.000 A 
ENDROOT
BRANCH   1   7
ATOM      7  C   UNL     1     -10.682  11.724  67.975  0.00  0.00    +0.192 C 
ATOM      8  O   UNL     1     -11.846  10.786  67.651  0.00  0.00    -0.217 OA
BRANCH   7   9
ATOM      9  C   UNL     1     -11.282  12.896  66.961  0.00  0.00    +0.126 C 
BRANCH   9  10
ATOM     10  N   UNL     1     -12.063  12.123  66.041  0.00  0.00    -0.216 NA
BRANCH  10  12
ATOM     11  C   UNL     1     -11.901  12.053  63.583  0.00  0.00    +0.019 C 
ATOM     12  C   UNL     1     -12.393  12.741  64.809  0.00  0.00    +0.073 C 
ATOM     13  C   UNL     1     -12.323  14.224  64.768  0.00  0.00    +0.019 C 
ENDBRANCH  10  12
ENDBRANCH   9  10
ENDBRANCH   7   9
ENDBRANCH   1   7
BRANCH   4  14
ATOM     14  N   UNL     1     -13.062  13.813  72.662  0.00  0.00    -0.101 NA
BRANCH  14  15
ATOM     15  S   UNL     1     -12.939  15.476  73.048  0.00  0.00    +0.075 S 
ATOM     16  O   UNL     1     -11.851  16.096  72.201  0.00  0.00    -0.153 OA
ATOM     17  O   UNL     1     -14.229  16.127  72.680  0.00  0.00    -0.153 OA
ATOM     18  C   UNL     1     -12.497  15.802  74.719  0.00  0.00    +0.202 C 
ENDBRANCH  14  15
ENDBRANCH   4  14
TORSDOF 6
ENDMDL
MODEL 5
REMARK VINA RESULT:      -5.6      3.816      6.408
REMARK  Name = 
REMARK  6 active torsions:
REMARK  status: ('A' for Active; 'I' for Inactive)
REMARK    1  A    between atoms: C_2  and  N_4
REMARK    2  A    between atoms: N_4  and  C_5
REMARK    3  A    between atoms: C_5  and  C_6
REMARK    4  A    between atoms: C_6  and  C_8
REMARK    5  A    between atoms: C_11  and  N_12
REMARK    6  A    between atoms: N_12  and  S_13
REMARK                            x       y       z     vdW  Elec       q    Type
REMARK                         _______ _______ _______ _____ _____    ______ ____
ROOT
ATOM      1  C   UNL     1     -10.517  15.542  67.759  0.00  0.00    +0.009 A 
ATOM      2  C   UNL     1     -10.732  16.483  68.711  0.00  0.00    -0.000 A 
ATOM      3  C   UNL     1     -11.339  16.011  69.876  0.00  0.00    +0.018 A 
ATOM      4  C   UNL     1     -11.816  14.730  69.957  0.00  0.00    +0.091 A 
ATOM      5  C   UNL     1     -12.053  14.096  68.744  0.00  0.00    +0.018 A 
ATOM      6  C   UNL     1     -11.359  14.484  67.605  0.00  0.00    -0.000 A 
ENDROOT
BRANCH   1   7
ATOM      7  C   UNL     1      -9.730  16.009  66.418  0.00  0.00    +0.192 C 
ATOM      8  O   UNL     1     -10.888  15.572  65.520  0.00  0.00    -0.217 OA
BRANCH   7   9
ATOM      9  C   UNL     1     -10.342  17.550  66.539  0.00  0.00    +0.126 C 
BRANCH   9  10
ATOM     10  N   UNL     1      -9.232  18.345  66.105  0.00  0.00    -0.216 NA
BRANCH  10  12
ATOM     11  C   UNL     1      -7.891  18.908  68.095  0.00  0.00    +0.019 C 
ATOM     12  C   UNL     1      -8.789  19.358  66.994  0.00  0.00    +0.073 C 
ATOM     13  C   UNL     1      -9.784  20.391  67.377  0.00  0.00    +0.019 C 
ENDBRANCH  10  12
ENDBRANCH   9  10
ENDBRANCH   7   9
ENDBRANCH   1   7
BRANCH   4  14
ATOM     14  N   UNL     1     -12.172  14.033  71.122  0.00  0.00    -0.101 NA
BRANCH  14  15
ATOM     15  S   UNL     1     -13.411  14.632  72.140  0.00  0.00    +0.075 S 
ATOM     16  O   UNL     1     -14.303  15.552  71.336  0.00  0.00    -0.153 OA
ATOM     17  O   UNL     1     -14.236  13.473  72.585  0.00  0.00    -0.153 OA
ATOM     18  C   UNL     1     -12.834  15.585  73.501  0.00  0.00    +0.202 C 
ENDBRANCH  14  15
ENDBRANCH   4  14
TORSDOF 6
ENDMDL
MODEL 6
REMARK VINA RESULT:      -5.6      3.416      6.853
REMARK  Name = 
REMARK  6 active torsions:
REMARK  status: ('A' for Active; 'I' for Inactive)
REMARK    1  A    between atoms: C_2  and  N_4
REMARK    2  A    between atoms: N_4  and  C_5
REMARK    3  A    between atoms: C_5  and  C_6
REMARK    4  A    between atoms: C_6  and  C_8
REMARK    5  A    between atoms: C_11  and  N_12
REMARK    6  A    between atoms: N_12  and  S_13
REMARK                            x       y       z     vdW  Elec       q    Type
REMARK                         _______ _______ _______ _____ _____    ______ ____
ROOT
ATOM      1  C   UNL     1     -10.328  15.115  67.765  0.00  0.00    +0.009 A 
ATOM      2  C   UNL     1     -10.809  13.990  68.350  0.00  0.00    -0.000 A 
ATOM      3  C   UNL     1     -11.711  14.210  69.392  0.00  0.00    +0.018 A 
ATOM      4  C   UNL     1     -11.946  15.471  69.871  0.00  0.00    +0.091 A 
ATOM      5  C   UNL     1     -10.970  16.418  69.585  0.00  0.00    +0.018 A 
ATOM      6  C   UNL     1     -10.150  16.262  68.475  0.00  0.00    -0.000 A 
ENDROOT
BRANCH   1   7
ATOM      7  C   UNL     1      -9.347  14.926  66.485  0.00  0.00    +0.192 C 
ATOM      8  O   UNL     1      -8.305  14.187  67.325  0.00  0.00    -0.217 OA
BRANCH   7   9
ATOM      9  C   UNL     1     -10.092  13.500  66.067  0.00  0.00    +0.126 C 
BRANCH   9  10
ATOM     10  N   UNL     1     -10.428  13.731  64.694  0.00  0.00    -0.216 NA
BRANCH  10  12
ATOM     11  C   UNL     1     -12.781  13.863  65.415  0.00  0.00    +0.019 C 
ATOM     12  C   UNL     1     -11.793  13.579  64.338  0.00  0.00    +0.073 C 
ATOM     13  C   UNL     1     -12.128  12.425  63.466  0.00  0.00    +0.019 C 
ENDBRANCH  10  12
ENDBRANCH   9  10
ENDBRANCH   7   9
ENDBRANCH   1   7
BRANCH   4  14
ATOM     14  N   UNL     1     -13.012  15.879  70.687  0.00  0.00    -0.101 NA
BRANCH  14  15
ATOM     15  S   UNL     1     -13.152  15.280  72.285  0.00  0.00    +0.075 S 
ATOM     16  O   UNL     1     -11.787  15.292  72.934  0.00  0.00    -0.153 OA
ATOM     17  O   UNL     1     -14.027  16.215  73.047  0.00  0.00    -0.153 OA
ATOM     18  C   UNL     1     -13.724  13.620  72.388  0.00  0.00    +0.202 C 
ENDBRANCH  14  15
ENDBRANCH   4  14
TORSDOF 6
ENDMDL
MODEL 7
REMARK VINA RESULT:      -5.5      3.585      7.185
REMARK  Name = 
REMARK  6 active torsions:
REMARK  status: ('A' for Active; 'I' for Inactive)
REMARK    1  A    between atoms: C_2  and  N_4
REMARK    2  A    between atoms: N_4  and  C_5
REMARK    3  A    between atoms: C_5  and  C_6
REMARK    4  A    between atoms: C_6  and  C_8
REMARK    5  A    between atoms: C_11  and  N_12
REMARK    6  A    between atoms: N_12  and  S_13
REMARK                            x       y       z     vdW  Elec       q    Type
REMARK                         _______ _______ _______ _____ _____    ______ ____
ROOT
ATOM      1  C   UNL     1     -11.461  14.034  65.558  0.00  0.00    +0.009 A 
ATOM      2  C   UNL     1     -11.949  14.236  66.807  0.00  0.00    -0.000 A 
ATOM      3  C   UNL     1     -11.317  15.253  67.526  0.00  0.00    +0.018 A 
ATOM      4  C   UNL     1     -10.193  15.867  67.045  0.00  0.00    +0.091 A 
ATOM      5  C   UNL     1      -9.493  15.168  66.069  0.00  0.00    +0.018 A 
ATOM      6  C   UNL     1     -10.148  14.242  65.268  0.00  0.00    -0.000 A 
ENDROOT
BRANCH   1   7
ATOM      7  C   UNL     1     -12.214  12.931  64.636  0.00  0.00    +0.192 C 
ATOM      8  O   UNL     1     -12.619  13.987  63.607  0.00  0.00    -0.217 OA
BRANCH   7   9
ATOM      9  C   UNL     1     -10.811  12.596  63.810  0.00  0.00    +0.126 C 
BRANCH   9  10
ATOM     10  N   UNL     1     -11.001  11.223  63.446  0.00  0.00    -0.216 NA
BRANCH  10  12
ATOM     11  C   UNL     1      -9.294   9.857  64.584  0.00  0.00    +0.019 C 
ATOM     12  C   UNL     1      -9.831  10.431  63.319  0.00  0.00    +0.073 C 
ATOM     13  C   UNL     1      -8.805  10.908  62.359  0.00  0.00    +0.019 C 
ENDBRANCH  10  12
ENDBRANCH   9  10
ENDBRANCH   7   9
ENDBRANCH   1   7
BRANCH   4  14
ATOM     14  N   UNL     1      -9.630  17.072  67.494  0.00  0.00    -0.101 NA
BRANCH  14  15
ATOM     15  S   UNL     1     -10.033  18.549  66.730  0.00  0.00    +0.075 S 
ATOM     16  O   UNL     1     -10.670  18.250  65.391  0.00  0.00    -0.153 OA
ATOM     17  O   UNL     1     -11.051  19.237  67.574  0.00  0.00    -0.153 OA
ATOM     18  C   UNL     1      -8.655  19.589  66.391  0.00  0.00    +0.202 C 
ENDBRANCH  14  15
ENDBRANCH   4  14
TORSDOF 6
ENDMDL
MODEL 8
REMARK VINA RESULT:      -5.5      3.231      4.237
REMARK  Name = 
REMARK  6 active torsions:
REMARK  status: ('A' for Active; 'I' for Inactive)
REMARK    1  A    between atoms: C_2  and  N_4
REMARK    2  A    between atoms: N_4  and  C_5
REMARK    3  A    between atoms: C_5  and  C_6
REMARK    4  A    between atoms: C_6  and  C_8
REMARK    5  A    between atoms: C_11  and  N_12
REMARK    6  A    between atoms: N_12  and  S_13
REMARK                            x       y       z     vdW  Elec       q    Type
REMARK                         _______ _______ _______ _____ _____    ______ ____
ROOT
ATOM      1  C   UNL     1     -10.012  17.370  66.808  0.00  0.00    +0.009 A 
ATOM      2  C   UNL     1      -9.259  16.580  66.003  0.00  0.00    -0.000 A 
ATOM      3  C   UNL     1      -9.753  15.287  65.822  0.00  0.00    +0.018 A 
ATOM      4  C   UNL     1     -10.823  14.830  66.543  0.00  0.00    +0.091 A 
ATOM      5  C   UNL     1     -11.103  15.524  67.715  0.00  0.00    +0.018 A 
ATOM      6  C   UNL     1     -10.719  16.852  67.849  0.00  0.00    -0.000 A 
ENDROOT
BRANCH   1   7
ATOM      7  C   UNL     1      -9.543  18.914  66.983  0.00  0.00    +0.192 C 
ATOM      8  O   UNL     1     -10.878  19.305  67.619  0.00  0.00    -0.217 OA
BRANCH   7   9
ATOM      9  C   UNL     1      -8.875  18.591  68.471  0.00  0.00    +0.126 C 
BRANCH   9  10
ATOM     10  N   UNL     1      -7.475  18.743  68.208  0.00  0.00    -0.216 NA
BRANCH  10  12
ATOM     11  C   UNL     1      -7.136  16.450  69.045  0.00  0.00    +0.019 C 
ATOM     12  C   UNL     1      -6.603  17.827  68.850  0.00  0.00    +0.073 C 
ATOM     13  C   UNL     1      -5.797  18.355  69.980  0.00  0.00    +0.019 C 
ENDBRANCH  10  12
ENDBRANCH   9  10
ENDBRANCH   7   9
ENDBRANCH   1   7
BRANCH   4  14
ATOM     14  N   UNL     1     -11.600  13.694  66.273  0.00  0.00    -0.101 NA
BRANCH  14  15
ATOM     15  S   UNL     1     -12.085  13.342  64.670  0.00  0.00    +0.075 S 
ATOM     16  O   UNL     1     -13.288  12.425  64.711  0.00  0.00    -0.153 OA
ATOM     17  O   UNL     1     -12.510  14.620  64.031  0.00  0.00    -0.153 OA
ATOM     18  C   UNL     1     -10.870  12.505  63.712  0.00  0.00    +0.202 C 
ENDBRANCH  14  15
ENDBRANCH   4  14
TORSDOF 6
ENDMDL
MODEL 9
REMARK VINA RESULT:      -5.4      3.235      4.510
REMARK  Name = 
REMARK  6 active torsions:
REMARK  status: ('A' for Active; 'I' for Inactive)
REMARK    1  A    between atoms: C_2  and  N_4
REMARK    2  A    between atoms: N_4  and  C_5
REMARK    3  A    between atoms: C_5  and  C_6
REMARK    4  A    between atoms: C_6  and  C_8
REMARK    5  A    between atoms: C_11  and  N_12
REMARK    6  A    between atoms: N_12  and  S_13
REMARK                            x       y       z     vdW  Elec       q    Type
REMARK                         _______ _______ _______ _____ _____    ______ ____
ROOT
ATOM      1  C   UNL     1      -9.819  15.417  67.522  0.00  0.00    +0.009 A 
ATOM      2  C   UNL     1      -9.229  14.199  67.430  0.00  0.00    -0.000 A 
ATOM      3  C   UNL     1     -10.038  13.194  66.897  0.00  0.00    +0.018 A 
ATOM      4  C   UNL     1     -11.367  13.411  66.650  0.00  0.00    +0.091 A 
ATOM      5  C   UNL     1     -11.941  14.478  67.329  0.00  0.00    +0.018 A 
ATOM      6  C   UNL     1     -11.155  15.541  67.753  0.00  0.00    -0.000 A 
ENDROOT
BRANCH   1   7
ATOM      7  C   UNL     1      -8.902  16.650  68.045  0.00  0.00    +0.192 C 
ATOM      8  O   UNL     1      -7.879  15.697  68.665  0.00  0.00    -0.217 OA
BRANCH   7   9
ATOM      9  C   UNL     1      -8.062  16.694  66.611  0.00  0.00    +0.126 C 
BRANCH   9  10
ATOM     10  N   UNL     1      -8.816  17.649  65.854  0.00  0.00    -0.216 NA
BRANCH  10  12
ATOM     11  C   UNL     1     -10.409  19.496  66.209  0.00  0.00    +0.019 C 
ATOM     12  C   UNL     1      -9.072  18.897  66.478  0.00  0.00    +0.073 C 
ATOM     13  C   UNL     1      -7.946  19.864  66.518  0.00  0.00    +0.019 C 
ENDBRANCH  10  12
ENDBRANCH   9  10
ENDBRANCH   7   9
ENDBRANCH   1   7
BRANCH   4  14
ATOM     14  N   UNL     1     -12.219  12.621  65.863  0.00  0.00    -0.101 NA
BRANCH  14  15
ATOM     15  S   UNL     1     -12.185  12.752  64.157  0.00  0.00    +0.075 S 
ATOM     16  O   UNL     1     -13.287  11.894  63.578  0.00  0.00    -0.153 OA
ATOM     17  O   UNL     1     -12.478  14.170  63.803  0.00  0.00    -0.153 OA
ATOM     18  C   UNL     1     -10.692  12.188  63.416  0.00  0.00    +0.202 C 
ENDBRANCH  14  15
ENDBRANCH   4  14
TORSDOF 6
ENDMDL
