MODEL 1
REMARK VINA RESULT:      -8.0      0.000      0.000
REMARK  Name = 
REMARK  7 active torsions:
REMARK  status: ('A' for Active; 'I' for Inactive)
REMARK    1  A    between atoms: S_2  and  O_5
REMARK    2  A    between atoms: O_5  and  C_6
REMARK    3  A    between atoms: C_9  and  C_10
REMARK    4  A    between atoms: C_10  and  C_11
REMARK    5  A    between atoms: C_10  and  C_22
REMARK    6  A    between atoms: C_14  and  O_15
REMARK    7  A    between atoms: O_15  and  S_16
REMARK                            x       y       z     vdW  Elec       q    Type
REMARK                         _______ _______ _______ _____ _____    ______ ____
ROOT
ATOM      1  C   UNL     1     -11.443  11.857  67.974  0.00  0.00    +0.085 C 
ENDROOT
BRANCH   1   2
ATOM      2  C   UNL     1     -10.413  10.806  67.905  0.00  0.00    +0.067 A 
ATOM      3  N   UNL     1      -9.386  10.788  68.789  0.00  0.00    -0.248 NA
ATOM      4  C   UNL     1      -8.354   9.975  68.457  0.00  0.00    +0.098 A 
ATOM      5  C   UNL     1      -8.603   8.810  67.762  0.00  0.00    +0.021 A 
ATOM      6  C   UNL     1      -9.920   8.532  67.413  0.00  0.00    +0.003 A 
ATOM      7  C   UNL     1     -10.815   9.573  67.409  0.00  0.00    +0.015 A 
ENDBRANCH   1   2
BRANCH   1   8
ATOM      8  C   UNL     1     -11.333  12.877  66.920  0.00  0.00    -0.013 A 
ATOM      9  C   UNL     1     -10.051  13.183  66.481  0.00  0.00    -0.000 A 
ATOM     10  C   UNL     1      -9.879  14.144  65.493  0.00  0.00    +0.039 A 
ATOM     11  C   UNL     1     -10.964  14.922  65.108  0.00  0.00    +0.171 A 
ATOM     12  C   UNL     1     -12.207  14.339  65.283  0.00  0.00    +0.039 A 
ATOM     13  C   UNL     1     -12.346  13.165  66.013  0.00  0.00    -0.000 A 
BRANCH  11  14
ATOM     14  O   UNL     1     -10.813  16.264  64.748  0.00  0.00    -0.359 OA
BRANCH  14  15
ATOM     15  S   UNL     1     -10.172  17.332  65.910  0.00  0.00    +0.042 S 
ATOM     16  O   UNL     1     -10.696  16.905  67.457  0.00  0.00    -0.259 OA
ATOM     17  O   UNL     1     -10.579  18.747  65.672  0.00  0.00    -0.336 OA
ATOM     18  O   UNL     1      -8.677  17.271  65.870  0.00  0.00    -0.336 OA
ENDBRANCH  14  15
ENDBRANCH  11  14
ENDBRANCH   1   8
BRANCH   1  22
ATOM     19  C   UNL     1     -12.946  13.512  71.570  0.00  0.00    +0.171 A 
ATOM     20  C   UNL     1     -12.853  12.140  71.366  0.00  0.00    +0.039 A 
ATOM     21  C   UNL     1     -12.106  11.598  70.335  0.00  0.00    -0.000 A 
ATOM     22  C   UNL     1     -11.659  12.399  69.322  0.00  0.00    -0.013 A 
ATOM     23  C   UNL     1     -11.871  13.770  69.416  0.00  0.00    -0.000 A 
ATOM     24  C   UNL     1     -12.564  14.299  70.499  0.00  0.00    +0.039 A 
BRANCH  19  25
ATOM     25  O   UNL     1     -12.969  14.009  72.876  0.00  0.00    -0.359 OA
BRANCH  25  27
ATOM     26  O   UNL     1     -14.341  16.180  72.710  0.00  0.00    -0.336 OA
ATOM     27  S   UNL     1     -12.953  15.707  73.080  0.00  0.00    +0.042 S 
ATOM     28  O   UNL     1     -12.747  16.018  74.709  0.00  0.00    -0.259 OA
ATOM     29  O   UNL     1     -11.895  16.346  72.252  0.00  0.00    -0.336 OA
ENDBRANCH  25  27
ENDBRANCH  19  25
ENDBRANCH   1  22
TORSDOF 7
ENDMDL
MODEL 2
REMARK VINA RESULT:      -7.6      3.218      5.804
REMARK  Name = 
REMARK  7 active torsions:
REMARK  status: ('A' for Active; 'I' for Inactive)
REMARK    1  A    between atoms: S_2  and  O_5
REMARK    2  A    between atoms: O_5  and  C_6
REMARK    3  A    between atoms: C_9  and  C_10
REMARK    4  A    between atoms: C_10  and  C_11
REMARK    5  A    between atoms: C_10  and  C_22
REMARK    6  A    between atoms: C_14  and  O_15
REMARK    7  A    between atoms: O_15  and  S_16
REMARK                            x       y       z     vdW  Elec       q    Type
REMARK                         _______ _______ _______ _____ _____    ______ ____
ROOT
ATOM      1  C   UNL     1     -10.468  12.504  67.365  0.00  0.00    +0.085 C 
ENDROOT
BRANCH   1   2
ATOM      2  C   UNL     1     -10.988  12.353  65.994  0.00  0.00    +0.067 A 
ATOM      3  N   UNL     1     -12.205  12.845  65.660  0.00  0.00    -0.248 NA
ATOM      4  C   UNL     1     -12.705  12.397  64.483  0.00  0.00    +0.098 A 
ATOM      5  C   UNL     1     -11.843  12.101  63.448  0.00  0.00    +0.021 A 
ATOM      6  C   UNL     1     -10.480  12.261  63.672  0.00  0.00    +0.003 A 
ATOM      7  C   UNL     1     -10.047  12.305  64.974  0.00  0.00    +0.015 A 
ENDBRANCH   1   2
BRANCH   1   8
ATOM      8  C   UNL     1     -10.090  11.237  68.008  0.00  0.00    -0.013 A 
ATOM      9  C   UNL     1     -10.769  10.100  67.589  0.00  0.00    -0.000 A 
ATOM     10  C   UNL     1     -10.463   8.872  68.164  0.00  0.00    +0.039 A 
ATOM     11  C   UNL     1      -9.637   8.834  69.280  0.00  0.00    +0.171 A 
ATOM     12  C   UNL     1      -8.739   9.881  69.393  0.00  0.00    +0.039 A 
ATOM     13  C   UNL     1      -8.843  10.999  68.573  0.00  0.00    -0.000 A 
BRANCH  11  14
ATOM     14  O   UNL     1      -9.830   7.903  70.304  0.00  0.00    -0.359 OA
BRANCH  14  15
ATOM     15  S   UNL     1     -11.013   8.249  71.480  0.00  0.00    +0.042 S 
ATOM     16  O   UNL     1     -12.364   7.258  71.267  0.00  0.00    -0.259 OA
ATOM     17  O   UNL     1     -11.480   9.664  71.422  0.00  0.00    -0.336 OA
ATOM     18  O   UNL     1     -10.445   8.007  72.843  0.00  0.00    -0.336 OA
ENDBRANCH  14  15
ENDBRANCH  11  14
ENDBRANCH   1   8
BRANCH   1  22
ATOM     19  C   UNL     1     -12.050  14.996  70.401  0.00  0.00    +0.171 A 
ATOM     20  C   UNL     1     -11.313  15.500  69.335  0.00  0.00    +0.039 A 
ATOM     21  C   UNL     1     -11.047  14.750  68.204  0.00  0.00    -0.000 A 
ATOM     22  C   UNL     1     -11.264  13.401  68.213  0.00  0.00    -0.013 A 
ATOM     23  C   UNL     1     -11.862  12.832  69.332  0.00  0.00    -0.000 A 
ATOM     24  C   UNL     1     -12.185  13.620  70.431  0.00  0.00    +0.039 A 
BRANCH  19  25
ATOM     25  O   UNL     1     -12.938  15.837  71.078  0.00  0.00    -0.359 OA
BRANCH  25  27
ATOM     26  O   UNL     1     -14.317  16.493  73.149  0.00  0.00    -0.336 OA
ATOM     27  S   UNL     1     -13.400  15.393  72.664  0.00  0.00    +0.042 S 
ATOM     28  O   UNL     1     -14.317  14.001  72.551  0.00  0.00    -0.259 OA
ATOM     29  O   UNL     1     -12.215  15.210  73.545  0.00  0.00    -0.336 OA
ENDBRANCH  25  27
ENDBRANCH  19  25
ENDBRANCH   1  22
TORSDOF 7
ENDMDL
MODEL 3
REMARK VINA RESULT:      -7.5      3.842      5.225
REMARK  Name = 
REMARK  7 active torsions:
REMARK  status: ('A' for Active; 'I' for Inactive)
REMARK    1  A    between atoms: S_2  and  O_5
REMARK    2  A    between atoms: O_5  and  C_6
REMARK    3  A    between atoms: C_9  and  C_10
REMARK    4  A    between atoms: C_10  and  C_11
REMARK    5  A    between atoms: C_10  and  C_22
REMARK    6  A    between atoms: C_14  and  O_15
REMARK    7  A    between atoms: O_15  and  S_16
REMARK                            x       y       z     vdW  Elec       q    Type
REMARK                         _______ _______ _______ _____ _____    ______ ____
ROOT
ATOM      1  C   UNL     1     -11.510  12.974  67.637  0.00  0.00    +0.085 C 
ENDROOT
BRANCH   1   2
ATOM      2  C   UNL     1     -11.507  12.685  66.192  0.00  0.00    +0.067 A 
ATOM      3  N   UNL     1     -12.655  12.743  65.474  0.00  0.00    -0.248 NA
ATOM      4  C   UNL     1     -12.596  12.176  64.244  0.00  0.00    +0.098 A 
ATOM      5  C   UNL     1     -11.412  12.212  63.537  0.00  0.00    +0.021 A 
ATOM      6  C   UNL     1     -10.315  12.819  64.138  0.00  0.00    +0.003 A 
ATOM      7  C   UNL     1     -10.339  12.979  65.501  0.00  0.00    +0.015 A 
ENDBRANCH   1   2
BRANCH   1   8
ATOM      8  C   UNL     1     -10.858  14.241  67.998  0.00  0.00    -0.013 A 
ATOM      9  C   UNL     1     -11.693  15.277  68.400  0.00  0.00    -0.000 A 
ATOM     10  C   UNL     1     -11.139  16.504  68.747  0.00  0.00    +0.039 A 
ATOM     11  C   UNL     1      -9.793  16.735  68.495  0.00  0.00    +0.171 A 
ATOM     12  C   UNL     1      -8.989  15.608  68.467  0.00  0.00    +0.039 A 
ATOM     13  C   UNL     1      -9.549  14.336  68.452  0.00  0.00    -0.000 A 
BRANCH  11  14
ATOM     14  O   UNL     1      -9.324  17.995  68.113  0.00  0.00    -0.359 OA
BRANCH  14  15
ATOM     15  S   UNL     1      -9.664  18.525  66.530  0.00  0.00    +0.042 S 
ATOM     16  O   UNL     1     -10.187  17.234  65.576  0.00  0.00    -0.259 OA
ATOM     17  O   UNL     1      -8.475  19.126  65.861  0.00  0.00    -0.336 OA
ATOM     18  O   UNL     1     -10.742  19.562  66.575  0.00  0.00    -0.336 OA
ENDBRANCH  14  15
ENDBRANCH  11  14
ENDBRANCH   1   8
BRANCH   1  22
ATOM     19  C   UNL     1     -11.248   9.363  69.834  0.00  0.00    +0.171 A 
ATOM     20  C   UNL     1     -10.762   9.480  68.536  0.00  0.00    +0.039 A 
ATOM     21  C   UNL     1     -10.579  10.708  67.926  0.00  0.00    -0.000 A 
ATOM     22  C   UNL     1     -11.126  11.832  68.478  0.00  0.00    -0.013 A 
ATOM     23  C   UNL     1     -11.760  11.726  69.711  0.00  0.00    -0.000 A 
ATOM     24  C   UNL     1     -11.870  10.491  70.338  0.00  0.00    +0.039 A 
BRANCH  19  25
ATOM     25  O   UNL     1     -10.728   8.373  70.672  0.00  0.00    -0.359 OA
BRANCH  25  27
ATOM     26  O   UNL     1     -10.938   6.127  71.911  0.00  0.00    -0.336 OA
ATOM     27  S   UNL     1     -11.586   6.898  70.784  0.00  0.00    +0.042 S 
ATOM     28  O   UNL     1     -13.145   7.256  71.266  0.00  0.00    -0.259 OA
ATOM     29  O   UNL     1     -11.559   6.152  69.496  0.00  0.00    -0.336 OA
ENDBRANCH  25  27
ENDBRANCH  19  25
ENDBRANCH   1  22
TORSDOF 7
ENDMDL
MODEL 4
REMARK VINA RESULT:      -7.4      3.789      7.730
REMARK  Name = 
REMARK  7 active torsions:
REMARK  status: ('A' for Active; 'I' for Inactive)
REMARK    1  A    between atoms: S_2  and  O_5
REMARK    2  A    between atoms: O_5  and  C_6
REMARK    3  A    between atoms: C_9  and  C_10
REMARK    4  A    between atoms: C_10  and  C_11
REMARK    5  A    between atoms: C_10  and  C_22
REMARK    6  A    between atoms: C_14  and  O_15
REMARK    7  A    between atoms: O_15  and  S_16
REMARK                            x       y       z     vdW  Elec       q    Type
REMARK                         _______ _______ _______ _____ _____    ______ ____
ROOT
ATOM      1  C   UNL     1     -12.326  13.673  69.801  0.00  0.00    +0.085 C 
ENDROOT
BRANCH   1   2
ATOM      2  C   UNL     1     -12.570  14.386  71.067  0.00  0.00    +0.067 A 
ATOM      3  N   UNL     1     -11.584  15.104  71.656  0.00  0.00    -0.248 NA
ATOM      4  C   UNL     1     -11.819  15.462  72.942  0.00  0.00    +0.098 A 
ATOM      5  C   UNL     1     -13.112  15.721  73.348  0.00  0.00    +0.021 A 
ATOM      6  C   UNL     1     -14.127  15.582  72.409  0.00  0.00    +0.003 A 
ATOM      7  C   UNL     1     -13.867  14.830  71.290  0.00  0.00    +0.015 A 
ENDBRANCH   1   2
BRANCH   1   8
ATOM      8  C   UNL     1     -12.066  12.234  69.960  0.00  0.00    -0.013 A 
ATOM      9  C   UNL     1     -12.599  11.628  71.092  0.00  0.00    -0.000 A 
ATOM     10  C   UNL     1     -12.381  10.272  71.304  0.00  0.00    +0.039 A 
ATOM     11  C   UNL     1     -11.474   9.596  70.498  0.00  0.00    +0.171 A 
ATOM     12  C   UNL     1     -11.294  10.124  69.231  0.00  0.00    +0.039 A 
ATOM     13  C   UNL     1     -11.807  11.373  68.902  0.00  0.00    -0.000 A 
BRANCH  11  14
ATOM     14  O   UNL     1     -10.669   8.571  71.001  0.00  0.00    -0.359 OA
BRANCH  14  15
ATOM     15  S   UNL     1     -11.270   6.978  70.929  0.00  0.00    +0.042 S 
ATOM     16  O   UNL     1     -10.230   5.918  71.731  0.00  0.00    -0.259 OA
ATOM     17  O   UNL     1     -11.422   6.488  69.529  0.00  0.00    -0.336 OA
ATOM     18  O   UNL     1     -12.615   6.926  71.583  0.00  0.00    -0.336 OA
ENDBRANCH  14  15
ENDBRANCH  11  14
ENDBRANCH   1   8
BRANCH   1  22
ATOM     19  C   UNL     1      -9.569  14.814  66.796  0.00  0.00    +0.171 A 
ATOM     20  C   UNL     1     -10.944  14.946  66.632  0.00  0.00    +0.039 A 
ATOM     21  C   UNL     1     -11.824  14.854  67.694  0.00  0.00    -0.000 A 
ATOM     22  C   UNL     1     -11.396  14.361  68.895  0.00  0.00    -0.013 A 
ATOM     23  C   UNL     1     -10.046  14.069  69.049  0.00  0.00    -0.000 A 
ATOM     24  C   UNL     1      -9.166  14.236  67.986  0.00  0.00    +0.039 A 
BRANCH  19  25
ATOM     25  O   UNL     1      -8.710  15.617  66.041  0.00  0.00    -0.359 OA
BRANCH  25  27
ATOM     26  O   UNL     1      -7.491  17.847  65.635  0.00  0.00    -0.336 OA
ATOM     27  S   UNL     1      -8.677  17.292  66.389  0.00  0.00    +0.042 S 
ATOM     28  O   UNL     1     -10.048  17.974  65.720  0.00  0.00    -0.259 OA
ATOM     29  O   UNL     1      -8.588  17.541  67.854  0.00  0.00    -0.336 OA
ENDBRANCH  25  27
ENDBRANCH  19  25
ENDBRANCH   1  22
TORSDOF 7
ENDMDL
MODEL 5
REMARK VINA RESULT:      -7.4      3.882      7.092
REMARK  Name = 
REMARK  7 active torsions:
REMARK  status: ('A' for Active; 'I' for Inactive)
REMARK    1  A    between atoms: S_2  and  O_5
REMARK    2  A    between atoms: O_5  and  C_6
REMARK    3  A    between atoms: C_9  and  C_10
REMARK    4  A    between atoms: C_10  and  C_11
REMARK    5  A    between atoms: C_10  and  C_22
REMARK    6  A    between atoms: C_14  and  O_15
REMARK    7  A    between atoms: O_15  and  S_16
REMARK                            x       y       z     vdW  Elec       q    Type
REMARK                         _______ _______ _______ _____ _____    ______ ____
ROOT
ATOM      1  C   UNL     1     -11.961  14.265  69.451  0.00  0.00    +0.085 C 
ENDROOT
BRANCH   1   2
ATOM      2  C   UNL     1     -12.357  14.654  70.816  0.00  0.00    +0.067 A 
ATOM      3  N   UNL     1     -11.462  15.221  71.659  0.00  0.00    -0.248 NA
ATOM      4  C   UNL     1     -11.839  15.261  72.960  0.00  0.00    +0.098 A 
ATOM      5  C   UNL     1     -13.174  15.404  73.275  0.00  0.00    +0.021 A 
ATOM      6  C   UNL     1     -14.084  15.482  72.227  0.00  0.00    +0.003 A 
ATOM      7  C   UNL     1     -13.684  15.020  70.997  0.00  0.00    +0.015 A 
ENDBRANCH   1   2
BRANCH   1   8
ATOM      8  C   UNL     1     -11.744  12.821  69.276  0.00  0.00    -0.013 A 
ATOM      9  C   UNL     1     -12.027  12.012  70.370  0.00  0.00    -0.000 A 
ATOM     10  C   UNL     1     -11.835  10.639  70.270  0.00  0.00    +0.039 A 
ATOM     11  C   UNL     1     -11.177  10.126  69.160  0.00  0.00    +0.171 A 
ATOM     12  C   UNL     1     -11.272  10.885  68.007  0.00  0.00    +0.039 A 
ATOM     13  C   UNL     1     -11.784  12.176  68.046  0.00  0.00    -0.000 A 
BRANCH  11  14
ATOM     14  O   UNL     1     -10.329   9.019  69.258  0.00  0.00    -0.359 OA
BRANCH  14  15
ATOM     15  S   UNL     1      -8.745   9.278  69.827  0.00  0.00    +0.042 S 
ATOM     16  O   UNL     1      -7.702   8.092  69.230  0.00  0.00    -0.259 OA
ATOM     17  O   UNL     1      -8.659   9.244  71.316  0.00  0.00    -0.336 OA
ATOM     18  O   UNL     1      -8.266  10.620  69.369  0.00  0.00    -0.336 OA
ENDBRANCH  14  15
ENDBRANCH  11  14
ENDBRANCH   1   8
BRANCH   1  22
ATOM     19  C   UNL     1      -8.972  17.138  68.590  0.00  0.00    +0.171 A 
ATOM     20  C   UNL     1      -8.667  15.874  69.082  0.00  0.00    +0.039 A 
ATOM     21  C   UNL     1      -9.591  14.844  69.090  0.00  0.00    -0.000 A 
ATOM     22  C   UNL     1     -10.912  15.111  68.866  0.00  0.00    -0.013 A 
ATOM     23  C   UNL     1     -11.278  16.407  68.520  0.00  0.00    -0.000 A 
ATOM     24  C   UNL     1     -10.320  17.411  68.450  0.00  0.00    +0.039 A 
BRANCH  19  25
ATOM     25  O   UNL     1      -8.000  17.846  67.878  0.00  0.00    -0.359 OA
BRANCH  25  27
ATOM     26  O   UNL     1      -6.402  16.318  66.561  0.00  0.00    -0.336 OA
ATOM     27  S   UNL     1      -7.562  17.260  66.332  0.00  0.00    +0.042 S 
ATOM     28  O   UNL     1      -8.836  16.341  65.762  0.00  0.00    -0.259 OA
ATOM     29  O   UNL     1      -7.218  18.372  65.405  0.00  0.00    -0.336 OA
ENDBRANCH  25  27
ENDBRANCH  19  25
ENDBRANCH   1  22
TORSDOF 7
ENDMDL
MODEL 6
REMARK VINA RESULT:      -7.3      4.213      6.997
REMARK  Name = 
REMARK  7 active torsions:
REMARK  status: ('A' for Active; 'I' for Inactive)
REMARK    1  A    between atoms: S_2  and  O_5
REMARK    2  A    between atoms: O_5  and  C_6
REMARK    3  A    between atoms: C_9  and  C_10
REMARK    4  A    between atoms: C_10  and  C_11
REMARK    5  A    between atoms: C_10  and  C_22
REMARK    6  A    between atoms: C_14  and  O_15
REMARK    7  A    between atoms: O_15  and  S_16
REMARK                            x       y       z     vdW  Elec       q    Type
REMARK                         _______ _______ _______ _____ _____    ______ ____
ROOT
ATOM      1  C   UNL     1     -11.775  15.412  69.357  0.00  0.00    +0.085 C 
ENDROOT
BRANCH   1   2
ATOM      2  C   UNL     1     -12.289  15.457  70.737  0.00  0.00    +0.067 A 
ATOM      3  N   UNL     1     -11.709  16.258  71.664  0.00  0.00    -0.248 NA
ATOM      4  C   UNL     1     -12.059  16.003  72.948  0.00  0.00    +0.098 A 
ATOM      5  C   UNL     1     -13.328  15.539  73.226  0.00  0.00    +0.021 A 
ATOM      6  C   UNL     1     -14.193  15.334  72.157  0.00  0.00    +0.003 A 
ATOM      7  C   UNL     1     -13.645  15.211  70.904  0.00  0.00    +0.015 A 
ENDBRANCH   1   2
BRANCH   1   8
ATOM      8  C   UNL     1     -11.717  14.061  68.780  0.00  0.00    -0.013 A 
ATOM      9  C   UNL     1     -11.855  12.999  69.667  0.00  0.00    -0.000 A 
ATOM     10  C   UNL     1     -11.801  11.697  69.185  0.00  0.00    +0.039 A 
ATOM     11  C   UNL     1     -11.411  11.477  67.870  0.00  0.00    +0.171 A 
ATOM     12  C   UNL     1     -11.659  12.518  66.992  0.00  0.00    +0.039 A 
ATOM     13  C   UNL     1     -12.044  13.768  67.462  0.00  0.00    -0.000 A 
BRANCH  11  14
ATOM     14  O   UNL     1     -10.656  10.358  67.507  0.00  0.00    -0.359 OA
BRANCH  14  15
ATOM     15  S   UNL     1      -8.988  10.577  67.238  0.00  0.00    +0.042 S 
ATOM     16  O   UNL     1      -8.380  11.778  68.256  0.00  0.00    -0.259 OA
ATOM     17  O   UNL     1      -8.683  10.979  65.835  0.00  0.00    -0.336 OA
ATOM     18  O   UNL     1      -8.268   9.295  67.516  0.00  0.00    -0.336 OA
ENDBRANCH  14  15
ENDBRANCH  11  14
ENDBRANCH   1   8
BRANCH   1  22
ATOM     19  C   UNL     1      -8.221  17.234  67.948  0.00  0.00    +0.171 A 
ATOM     20  C   UNL     1      -9.480  17.769  67.698  0.00  0.00    +0.039 A 
ATOM     21  C   UNL     1     -10.606  17.355  68.386  0.00  0.00    -0.000 A 
ATOM     22  C   UNL     1     -10.565  16.216  69.141  0.00  0.00    -0.013 A 
ATOM     23  C   UNL     1      -9.347  15.562  69.289  0.00  0.00    -0.000 A 
ATOM     24  C   UNL     1      -8.212  16.038  68.643  0.00  0.00    +0.039 A 
BRANCH  19  25
ATOM     25  O   UNL     1      -7.103  18.070  67.910  0.00  0.00    -0.359 OA
BRANCH  25  27
ATOM     26  O   UNL     1      -5.190  19.226  66.634  0.00  0.00    -0.336 OA
ATOM     27  S   UNL     1      -6.176  18.092  66.472  0.00  0.00    +0.042 S 
ATOM     28  O   UNL     1      -5.293  16.674  66.420  0.00  0.00    -0.259 OA
ATOM     29  O   UNL     1      -7.039  18.255  65.271  0.00  0.00    -0.336 OA
ENDBRANCH  25  27
ENDBRANCH  19  25
ENDBRANCH   1  22
TORSDOF 7
ENDMDL
MODEL 7
REMARK VINA RESULT:      -7.3      3.670      5.079
REMARK  Name = 
REMARK  7 active torsions:
REMARK  status: ('A' for Active; 'I' for Inactive)
REMARK    1  A    between atoms: S_2  and  O_5
REMARK    2  A    between atoms: O_5  and  C_6
REMARK    3  A    between atoms: C_9  and  C_10
REMARK    4  A    between atoms: C_10  and  C_11
REMARK    5  A    between atoms: C_10  and  C_22
REMARK    6  A    between atoms: C_14  and  O_15
REMARK    7  A    between atoms: O_15  and  S_16
REMARK                            x       y       z     vdW  Elec       q    Type
REMARK                         _______ _______ _______ _____ _____    ______ ____
ROOT
ATOM      1  C   UNL     1     -11.838  12.549  67.308  0.00  0.00    +0.085 C 
ENDROOT
BRANCH   1   2
ATOM      2  C   UNL     1     -11.708  12.382  65.850  0.00  0.00    +0.067 A 
ATOM      3  N   UNL     1     -12.779  12.553  65.038  0.00  0.00    -0.248 NA
ATOM      4  C   UNL     1     -12.625  12.090  63.774  0.00  0.00    +0.098 A 
ATOM      5  C   UNL     1     -11.378  12.127  63.185  0.00  0.00    +0.021 A 
ATOM      6  C   UNL     1     -10.321  12.630  63.934  0.00  0.00    +0.003 A 
ATOM      7  C   UNL     1     -10.469  12.677  65.298  0.00  0.00    +0.015 A 
ENDBRANCH   1   2
BRANCH   1   8
ATOM      8  C   UNL     1     -11.097  13.697  67.851  0.00  0.00    -0.013 A 
ATOM      9  C   UNL     1     -11.855  14.719  68.409  0.00  0.00    -0.000 A 
ATOM     10  C   UNL     1     -11.213  15.836  68.932  0.00  0.00    +0.039 A 
ATOM     11  C   UNL     1      -9.853  16.004  68.707  0.00  0.00    +0.171 A 
ATOM     12  C   UNL     1      -9.134  14.838  68.504  0.00  0.00    +0.039 A 
ATOM     13  C   UNL     1      -9.785  13.627  68.303  0.00  0.00    -0.000 A 
BRANCH  11  14
ATOM     14  O   UNL     1      -9.293  17.270  68.515  0.00  0.00    -0.359 OA
BRANCH  14  15
ATOM     15  S   UNL     1      -9.760  18.145  67.130  0.00  0.00    +0.042 S 
ATOM     16  O   UNL     1     -10.081  17.094  65.849  0.00  0.00    -0.259 OA
ATOM     17  O   UNL     1      -8.708  19.099  66.676  0.00  0.00    -0.336 OA
ATOM     18  O   UNL     1     -10.995  18.932  67.434  0.00  0.00    -0.336 OA
ENDBRANCH  14  15
ENDBRANCH  11  14
ENDBRANCH   1   8
BRANCH   1  22
ATOM     19  C   UNL     1     -10.520   9.307  69.692  0.00  0.00    +0.171 A 
ATOM     20  C   UNL     1     -11.245  10.370  70.220  0.00  0.00    +0.039 A 
ATOM     21  C   UNL     1     -11.921  11.271  69.416  0.00  0.00    -0.000 A 
ATOM     22  C   UNL     1     -11.674  11.305  68.072  0.00  0.00    -0.013 A 
ATOM     23  C   UNL     1     -10.827  10.347  67.528  0.00  0.00    -0.000 A 
ATOM     24  C   UNL     1     -10.213   9.407  68.348  0.00  0.00    +0.039 A 
BRANCH  19  25
ATOM     25  O   UNL     1     -10.531   8.077  70.355  0.00  0.00    -0.359 OA
BRANCH  25  27
ATOM     26  O   UNL     1     -10.601   8.083  72.927  0.00  0.00    -0.336 OA
ATOM     27  S   UNL     1      -9.613   7.941  71.792  0.00  0.00    +0.042 S 
ATOM     28  O   UNL     1      -9.008   6.384  71.859  0.00  0.00    -0.259 OA
ATOM     29  O   UNL     1      -8.532   8.962  71.846  0.00  0.00    -0.336 OA
ENDBRANCH  25  27
ENDBRANCH  19  25
ENDBRANCH   1  22
TORSDOF 7
ENDMDL
MODEL 8
REMARK VINA RESULT:      -7.2      3.128      7.122
REMARK  Name = 
REMARK  7 active torsions:
REMARK  status: ('A' for Active; 'I' for Inactive)
REMARK    1  A    between atoms: S_2  and  O_5
REMARK    2  A    between atoms: O_5  and  C_6
REMARK    3  A    between atoms: C_9  and  C_10
REMARK    4  A    between atoms: C_10  and  C_11
REMARK    5  A    between atoms: C_10  and  C_22
REMARK    6  A    between atoms: C_14  and  O_15
REMARK    7  A    between atoms: O_15  and  S_16
REMARK                            x       y       z     vdW  Elec       q    Type
REMARK                         _______ _______ _______ _____ _____    ______ ____
ROOT
ATOM      1  C   UNL     1      -9.734  14.720  66.821  0.00  0.00    +0.085 C 
ENDROOT
BRANCH   1   2
ATOM      2  C   UNL     1     -10.507  14.090  65.737  0.00  0.00    +0.067 A 
ATOM      3  N   UNL     1     -11.243  14.844  64.886  0.00  0.00    -0.248 NA
ATOM      4  C   UNL     1     -12.136  14.159  64.131  0.00  0.00    +0.098 A 
ATOM      5  C   UNL     1     -11.840  12.872  63.732  0.00  0.00    +0.021 A 
ATOM      6  C   UNL     1     -10.631  12.326  64.146  0.00  0.00    +0.003 A 
ATOM      7  C   UNL     1     -10.001  12.904  65.221  0.00  0.00    +0.015 A 
ENDBRANCH   1   2
BRANCH   1   8
ATOM      8  C   UNL     1     -10.485  14.895  68.073  0.00  0.00    -0.013 A 
ATOM      9  C   UNL     1     -11.643  14.140  68.213  0.00  0.00    -0.000 A 
ATOM     10  C   UNL     1     -12.403  14.266  69.370  0.00  0.00    +0.039 A 
ATOM     11  C   UNL     1     -12.105  15.282  70.269  0.00  0.00    +0.171 A 
ATOM     12  C   UNL     1     -10.790  15.713  70.268  0.00  0.00    +0.039 A 
ATOM     13  C   UNL     1      -9.912  15.315  69.267  0.00  0.00    -0.000 A 
BRANCH  11  14
ATOM     14  O   UNL     1     -13.107  15.943  70.986  0.00  0.00    -0.359 OA
BRANCH  14  15
ATOM     15  S   UNL     1     -13.374  15.471  72.600  0.00  0.00    +0.042 S 
ATOM     16  O   UNL     1     -14.041  13.922  72.659  0.00  0.00    -0.259 OA
ATOM     17  O   UNL     1     -14.304  16.389  73.318  0.00  0.00    -0.336 OA
ATOM     18  O   UNL     1     -12.072  15.467  73.338  0.00  0.00    -0.336 OA
ENDBRANCH  14  15
ENDBRANCH  11  14
ENDBRANCH   1   8
BRANCH   1  22
ATOM     19  C   UNL     1      -7.595  18.362  66.515  0.00  0.00    +0.171 A 
ATOM     20  C   UNL     1      -6.959  17.142  66.717  0.00  0.00    +0.039 A 
ATOM     21  C   UNL     1      -7.607  15.935  66.529  0.00  0.00    -0.000 A 
ATOM     22  C   UNL     1      -8.967  15.902  66.403  0.00  0.00    -0.013 A 
ATOM     23  C   UNL     1      -9.659  17.107  66.353  0.00  0.00    -0.000 A 
ATOM     24  C   UNL     1      -8.977  18.312  66.475  0.00  0.00    +0.039 A 
BRANCH  19  25
ATOM     25  O   UNL     1      -6.881  19.420  65.946  0.00  0.00    -0.359 OA
BRANCH  25  27
ATOM     26  O   UNL     1      -6.376  21.764  66.881  0.00  0.00    -0.336 OA
ATOM     27  S   UNL     1      -5.873  20.342  66.975  0.00  0.00    +0.042 S 
ATOM     28  O   UNL     1      -6.145  19.827  68.542  0.00  0.00    -0.259 OA
ATOM     29  O   UNL     1      -4.441  20.218  66.589  0.00  0.00    -0.336 OA
ENDBRANCH  25  27
ENDBRANCH  19  25
ENDBRANCH   1  22
TORSDOF 7
ENDMDL
MODEL 9
REMARK VINA RESULT:      -7.2      4.600      6.701
REMARK  Name = 
REMARK  7 active torsions:
REMARK  status: ('A' for Active; 'I' for Inactive)
REMARK    1  A    between atoms: S_2  and  O_5
REMARK    2  A    between atoms: O_5  and  C_6
REMARK    3  A    between atoms: C_9  and  C_10
REMARK    4  A    between atoms: C_10  and  C_11
REMARK    5  A    between atoms: C_10  and  C_22
REMARK    6  A    between atoms: C_14  and  O_15
REMARK    7  A    between atoms: O_15  and  S_16
REMARK                            x       y       z     vdW  Elec       q    Type
REMARK                         _______ _______ _______ _____ _____    ______ ____
ROOT
ATOM      1  C   UNL     1     -10.882  16.186  68.447  0.00  0.00    +0.085 C 
ENDROOT
BRANCH   1   2
ATOM      2  C   UNL     1     -11.508  15.488  69.583  0.00  0.00    +0.067 A 
ATOM      3  N   UNL     1     -11.502  14.134  69.649  0.00  0.00    -0.248 NA
ATOM      4  C   UNL     1     -12.350  13.597  70.559  0.00  0.00    +0.098 A 
ATOM      5  C   UNL     1     -12.612  14.281  71.728  0.00  0.00    +0.021 A 
ATOM      6  C   UNL     1     -12.000  15.515  71.910  0.00  0.00    +0.003 A 
ATOM      7  C   UNL     1     -11.515  16.159  70.798  0.00  0.00    +0.015 A 
ENDBRANCH   1   2
BRANCH   1   8
ATOM      8  C   UNL     1     -10.541  15.311  67.316  0.00  0.00    -0.013 A 
ATOM      9  C   UNL     1     -10.562  15.889  66.053  0.00  0.00    -0.000 A 
ATOM     10  C   UNL     1     -10.256  15.112  64.942  0.00  0.00    +0.039 A 
ATOM     11  C   UNL     1     -10.135  13.737  65.090  0.00  0.00    +0.171 A 
ATOM     12  C   UNL     1      -9.757  13.303  66.349  0.00  0.00    +0.039 A 
ATOM     13  C   UNL     1      -9.743  14.178  67.428  0.00  0.00    -0.000 A 
BRANCH  11  14
ATOM     14  O   UNL     1     -10.548  12.853  64.088  0.00  0.00    -0.359 OA
BRANCH  14  15
ATOM     15  S   UNL     1     -12.218  12.735  63.771  0.00  0.00    +0.042 S 
ATOM     16  O   UNL     1     -13.096  12.775  65.212  0.00  0.00    -0.259 OA
ATOM     17  O   UNL     1     -12.576  11.473  63.061  0.00  0.00    -0.336 OA
ATOM     18  O   UNL     1     -12.642  13.883  62.911  0.00  0.00    -0.336 OA
ENDBRANCH  14  15
ENDBRANCH  11  14
ENDBRANCH   1   8
BRANCH   1  22
ATOM     19  C   UNL     1      -7.553  18.794  68.666  0.00  0.00    +0.171 A 
ATOM     20  C   UNL     1      -8.840  19.252  68.406  0.00  0.00    +0.039 A 
ATOM     21  C   UNL     1      -9.958  18.467  68.619  0.00  0.00    -0.000 A 
ATOM     22  C   UNL     1      -9.819  17.124  68.831  0.00  0.00    -0.013 A 
ATOM     23  C   UNL     1      -8.536  16.599  68.943  0.00  0.00    -0.000 A 
ATOM     24  C   UNL     1      -7.426  17.423  68.795  0.00  0.00    +0.039 A 
BRANCH  19  25
ATOM     25  O   UNL     1      -6.609  19.673  69.203  0.00  0.00    -0.359 OA
BRANCH  25  27
ATOM     26  O   UNL     1      -5.139  19.402  67.108  0.00  0.00    -0.336 OA
ATOM     27  S   UNL     1      -5.543  20.454  68.117  0.00  0.00    +0.042 S 
ATOM     28  O   UNL     1      -6.420  21.614  67.295  0.00  0.00    -0.259 OA
ATOM     29  O   UNL     1      -4.373  21.039  68.828  0.00  0.00    -0.336 OA
ENDBRANCH  25  27
ENDBRANCH  19  25
ENDBRANCH   1  22
TORSDOF 7
ENDMDL
