MODEL 1
REMARK VINA RESULT:      -4.4      0.000      0.000
REMARK  Name = 
REMARK  1 active torsions:
REMARK  status: ('A' for Active; 'I' for Inactive)
REMARK    1  A    between atoms: C_4  and  C_5
REMARK                            x       y       z     vdW  Elec       q    Type
REMARK                         _______ _______ _______ _____ _____    ______ ____
ROOT
ATOM      1  C   UNL     1     -12.227  15.029  70.749  0.00  0.00    -0.021 A 
ATOM      2  C   UNL     1     -11.417  15.981  70.131  0.00  0.00    -0.004 A 
ATOM      3  C   UNL     1     -11.639  16.011  68.758  0.00  0.00    -0.000 A 
ATOM      4  C   UNL     1     -11.703  14.773  68.132  0.00  0.00    -0.000 A 
ATOM      5  C   UNL     1     -11.950  13.639  68.899  0.00  0.00    -0.000 A 
ATOM      6  C   UNL     1     -11.894  13.762  70.285  0.00  0.00    -0.004 A 
ENDROOT
BRANCH   1   9
ATOM      7  N   UNL     1     -14.425  15.637  71.408  0.00  0.00    -0.133 NA
ATOM      8  C   UNL     1     -13.668  15.714  72.804  0.00  0.00    +0.096 C 
ATOM      9  C   UNL     1     -12.062  15.239  72.345  0.00  0.00    +0.041 C 
ATOM     10  C   UNL     1     -13.208  14.058  72.842  0.00  0.00    +0.025 C 
ENDBRANCH   1   9
TORSDOF 1
ENDMDL
MODEL 2
REMARK VINA RESULT:      -4.3      1.455      3.843
REMARK  Name = 
REMARK  1 active torsions:
REMARK  status: ('A' for Active; 'I' for Inactive)
REMARK    1  A    between atoms: C_4  and  C_5
REMARK                            x       y       z     vdW  Elec       q    Type
REMARK                         _______ _______ _______ _____ _____    ______ ____
ROOT
ATOM      1  C   UNL     1     -12.222  14.973  70.827  0.00  0.00    -0.021 A 
ATOM      2  C   UNL     1     -13.458  14.395  71.116  0.00  0.00    -0.004 A 
ATOM      3  C   UNL     1     -14.245  15.252  71.879  0.00  0.00    -0.000 A 
ATOM      4  C   UNL     1     -13.602  15.870  72.944  0.00  0.00    -0.000 A 
ATOM      5  C   UNL     1     -12.213  15.936  72.949  0.00  0.00    -0.000 A 
ATOM      6  C   UNL     1     -11.518  15.182  72.007  0.00  0.00    -0.004 A 
ENDROOT
BRANCH   1   9
ATOM      7  N   UNL     1     -12.040  16.377  68.921  0.00  0.00    -0.133 NA
ATOM      8  C   UNL     1     -11.395  15.036  68.361  0.00  0.00    +0.096 C 
ATOM      9  C   UNL     1     -11.490  14.006  69.756  0.00  0.00    +0.041 C 
ATOM     10  C   UNL     1     -10.101  14.983  69.491  0.00  0.00    +0.025 C 
ENDBRANCH   1   9
TORSDOF 1
ENDMDL
MODEL 3
REMARK VINA RESULT:      -4.2      4.128      6.291
REMARK  Name = 
REMARK  1 active torsions:
REMARK  status: ('A' for Active; 'I' for Inactive)
REMARK    1  A    between atoms: C_4  and  C_5
REMARK                            x       y       z     vdW  Elec       q    Type
REMARK                         _______ _______ _______ _____ _____    ______ ____
ROOT
ATOM      1  C   UNL     1     -11.402  12.762  66.128  0.00  0.00    -0.021 A 
ATOM      2  C   UNL     1     -10.657  11.611  66.387  0.00  0.00    -0.004 A 
ATOM      3  C   UNL     1     -11.224  10.869  67.417  0.00  0.00    -0.000 A 
ATOM      4  C   UNL     1     -11.623  11.595  68.532  0.00  0.00    -0.000 A 
ATOM      5  C   UNL     1     -11.817  12.967  68.412  0.00  0.00    -0.000 A 
ATOM      6  C   UNL     1     -11.383  13.589  67.245  0.00  0.00    -0.004 A 
ENDROOT
BRANCH   1   9
ATOM      7  N   UNL     1     -13.136  12.370  64.555  0.00  0.00    -0.133 NA
ATOM      8  C   UNL     1     -12.062  13.094  63.634  0.00  0.00    +0.096 C 
ATOM      9  C   UNL     1     -10.797  13.418  64.779  0.00  0.00    +0.041 C 
ATOM     10  C   UNL     1     -12.046  14.570  64.516  0.00  0.00    +0.025 C 
ENDBRANCH   1   9
TORSDOF 1
ENDMDL
MODEL 4
REMARK VINA RESULT:      -4.1      3.997      5.592
REMARK  Name = 
REMARK  1 active torsions:
REMARK  status: ('A' for Active; 'I' for Inactive)
REMARK    1  A    between atoms: C_4  and  C_5
REMARK                            x       y       z     vdW  Elec       q    Type
REMARK                         _______ _______ _______ _____ _____    ______ ____
ROOT
ATOM      1  C   UNL     1     -11.435  12.817  66.052  0.00  0.00    -0.021 A 
ATOM      2  C   UNL     1     -12.577  13.147  65.321  0.00  0.00    -0.004 A 
ATOM      3  C   UNL     1     -12.702  12.340  64.195  0.00  0.00    -0.000 A 
ATOM      4  C   UNL     1     -11.541  12.158  63.455  0.00  0.00    -0.000 A 
ATOM      5  C   UNL     1     -10.311  12.415  64.050  0.00  0.00    -0.000 A 
ATOM      6  C   UNL     1     -10.304  13.062  65.284  0.00  0.00    -0.004 A 
ENDROOT
BRANCH   1   9
ATOM      7  N   UNL     1     -11.796  11.093  67.644  0.00  0.00    -0.133 NA
ATOM      8  C   UNL     1     -11.808  12.372  68.588  0.00  0.00    +0.096 C 
ATOM      9  C   UNL     1     -11.512  13.642  67.441  0.00  0.00    +0.041 C 
ATOM     10  C   UNL     1     -10.199  12.864  68.232  0.00  0.00    +0.025 C 
ENDBRANCH   1   9
TORSDOF 1
ENDMDL
MODEL 5
REMARK VINA RESULT:      -4.1      3.220      5.133
REMARK  Name = 
REMARK  1 active torsions:
REMARK  status: ('A' for Active; 'I' for Inactive)
REMARK    1  A    between atoms: C_4  and  C_5
REMARK                            x       y       z     vdW  Elec       q    Type
REMARK                         _______ _______ _______ _____ _____    ______ ____
ROOT
ATOM      1  C   UNL     1     -10.111  17.392  67.613  0.00  0.00    -0.021 A 
ATOM      2  C   UNL     1      -9.227  18.121  68.408  0.00  0.00    -0.004 A 
ATOM      3  C   UNL     1      -9.679  19.424  68.594  0.00  0.00    -0.000 A 
ATOM      4  C   UNL     1     -10.139  20.069  67.453  0.00  0.00    -0.000 A 
ATOM      5  C   UNL     1     -10.500  19.309  66.346  0.00  0.00    -0.000 A 
ATOM      6  C   UNL     1     -10.170  17.956  66.344  0.00  0.00    -0.004 A 
ENDROOT
BRANCH   1   9
ATOM      7  N   UNL     1     -11.775  16.367  68.960  0.00  0.00    -0.133 NA
ATOM      8  C   UNL     1     -10.827  15.125  68.669  0.00  0.00    +0.096 C 
ATOM      9  C   UNL     1      -9.618  15.852  67.656  0.00  0.00    +0.041 C 
ATOM     10  C   UNL     1     -11.026  15.152  66.962  0.00  0.00    +0.025 C 
ENDBRANCH   1   9
TORSDOF 1
ENDMDL
MODEL 6
REMARK VINA RESULT:      -4.0      4.442      6.549
REMARK  Name = 
REMARK  1 active torsions:
REMARK  status: ('A' for Active; 'I' for Inactive)
REMARK    1  A    between atoms: C_4  and  C_5
REMARK                            x       y       z     vdW  Elec       q    Type
REMARK                         _______ _______ _______ _____ _____    ______ ____
ROOT
ATOM      1  C   UNL     1     -11.186  13.251  65.567  0.00  0.00    -0.021 A 
ATOM      2  C   UNL     1     -11.868  13.230  66.783  0.00  0.00    -0.004 A 
ATOM      3  C   UNL     1     -11.942  14.503  67.338  0.00  0.00    -0.000 A 
ATOM      4  C   UNL     1     -10.763  15.237  67.317  0.00  0.00    -0.000 A 
ATOM      5  C   UNL     1      -9.752  14.870  66.435  0.00  0.00    -0.000 A 
ATOM      6  C   UNL     1      -9.871  13.649  65.776  0.00  0.00    -0.004 A 
ENDROOT
BRANCH   1   9
ATOM      7  N   UNL     1     -12.496  13.717  63.642  0.00  0.00    -0.133 NA
ATOM      8  C   UNL     1     -12.346  12.139  63.520  0.00  0.00    +0.096 C 
ATOM      9  C   UNL     1     -11.361  11.784  64.905  0.00  0.00    +0.041 C 
ATOM     10  C   UNL     1     -10.632  12.138  63.390  0.00  0.00    +0.025 C 
ENDBRANCH   1   9
TORSDOF 1
ENDMDL
MODEL 7
REMARK VINA RESULT:      -4.0      4.951      6.796
REMARK  Name = 
REMARK  1 active torsions:
REMARK  status: ('A' for Active; 'I' for Inactive)
REMARK    1  A    between atoms: C_4  and  C_5
REMARK                            x       y       z     vdW  Elec       q    Type
REMARK                         _______ _______ _______ _____ _____    ______ ____
ROOT
ATOM      1  C   UNL     1     -10.698  12.347  65.029  0.00  0.00    -0.021 A 
ATOM      2  C   UNL     1     -10.139  12.206  63.759  0.00  0.00    -0.004 A 
ATOM      3  C   UNL     1     -10.130  10.873  63.361  0.00  0.00    -0.000 A 
ATOM      4  C   UNL     1      -9.698   9.963  64.317  0.00  0.00    -0.000 A 
ATOM      5  C   UNL     1      -9.698  10.337  65.657  0.00  0.00    -0.000 A 
ATOM      6  C   UNL     1      -9.912  11.679  65.961  0.00  0.00    -0.004 A 
ENDROOT
BRANCH   1   9
ATOM      7  N   UNL     1     -13.044  12.639  64.820  0.00  0.00    -0.133 NA
ATOM      8  C   UNL     1     -12.586  14.134  65.103  0.00  0.00    +0.096 C 
ATOM      9  C   UNL     1     -10.872  13.934  65.291  0.00  0.00    +0.041 C 
ATOM     10  C   UNL     1     -11.914  13.818  66.653  0.00  0.00    +0.025 C 
ENDBRANCH   1   9
TORSDOF 1
ENDMDL
MODEL 8
REMARK VINA RESULT:      -4.0      4.299      5.968
REMARK  Name = 
REMARK  1 active torsions:
REMARK  status: ('A' for Active; 'I' for Inactive)
REMARK    1  A    between atoms: C_4  and  C_5
REMARK                            x       y       z     vdW  Elec       q    Type
REMARK                         _______ _______ _______ _____ _____    ______ ____
ROOT
ATOM      1  C   UNL     1     -11.328  12.497  65.901  0.00  0.00    -0.021 A 
ATOM      2  C   UNL     1     -10.796  11.219  65.736  0.00  0.00    -0.004 A 
ATOM      3  C   UNL     1     -10.286  11.050  64.453  0.00  0.00    -0.000 A 
ATOM      4  C   UNL     1     -11.095  11.507  63.420  0.00  0.00    -0.000 A 
ATOM      5  C   UNL     1     -12.102  12.423  63.704  0.00  0.00    -0.000 A 
ATOM      6  C   UNL     1     -12.406  12.668  65.041  0.00  0.00    -0.004 A 
ENDROOT
BRANCH   1   9
ATOM      7  N   UNL     1      -9.625  13.978  66.639  0.00  0.00    -0.133 NA
ATOM      8  C   UNL     1     -10.402  13.721  68.002  0.00  0.00    +0.096 C 
ATOM      9  C   UNL     1     -11.673  12.663  67.473  0.00  0.00    +0.041 C 
ATOM     10  C   UNL     1     -11.904  14.366  67.469  0.00  0.00    +0.025 C 
ENDBRANCH   1   9
TORSDOF 1
ENDMDL
MODEL 9
REMARK VINA RESULT:      -4.0      4.997      6.265
REMARK  Name = 
REMARK  1 active torsions:
REMARK  status: ('A' for Active; 'I' for Inactive)
REMARK    1  A    between atoms: C_4  and  C_5
REMARK                            x       y       z     vdW  Elec       q    Type
REMARK                         _______ _______ _______ _____ _____    ______ ____
ROOT
ATOM      1  C   UNL     1      -9.917  17.757  67.087  0.00  0.00    -0.021 A 
ATOM      2  C   UNL     1     -10.576  18.573  66.168  0.00  0.00    -0.004 A 
ATOM      3  C   UNL     1     -10.043  19.858  66.166  0.00  0.00    -0.000 A 
ATOM      4  C   UNL     1      -9.817  20.416  67.418  0.00  0.00    -0.000 A 
ATOM      5  C   UNL     1      -9.737  19.581  68.527  0.00  0.00    -0.000 A 
ATOM      6  C   UNL     1     -10.113  18.249  68.372  0.00  0.00    -0.004 A 
ENDROOT
BRANCH   1   9
ATOM      7  N   UNL     1      -8.072  16.742  65.990  0.00  0.00    -0.133 NA
ATOM      8  C   UNL     1      -9.102  15.532  66.012  0.00  0.00    +0.096 C 
ATOM      9  C   UNL     1     -10.449  16.249  66.842  0.00  0.00    +0.041 C 
ATOM     10  C   UNL     1      -9.219  15.436  67.725  0.00  0.00    +0.025 C 
ENDBRANCH   1   9
TORSDOF 1
ENDMDL
