MODEL 1
REMARK VINA RESULT:      -6.2      0.000      0.000
REMARK  Name = 
REMARK  2 active torsions:
REMARK  status: ('A' for Active; 'I' for Inactive)
REMARK    1  A    between atoms: N_6  and  C_7
REMARK    2  A    between atoms: C_7  and  C_8
REMARK                            x       y       z     vdW  Elec       q    Type
REMARK                         _______ _______ _______ _____ _____    ______ ____
ROOT
ATOM      1  C   UNL     1     -10.333  13.821  65.452  0.00  0.00    +0.126 A 
ATOM      2  C   UNL     1     -11.035  12.871  64.718  0.00  0.00    +0.133 A 
ATOM      3 CL   UNL     1     -10.203  11.364  64.386  0.00  0.00    -0.076 Cl
ATOM      4  C   UNL     1     -12.169  13.210  63.994  0.00  0.00    +0.295 A 
ATOM      5  O   UNL     1     -12.876  12.304  63.479  0.00  0.00    -0.264 OA
ATOM      6  N   UNL     1     -12.458  14.525  63.883  0.00  0.00    -0.151 NA
ATOM      7  C   UNL     1     -11.698  15.487  64.462  0.00  0.00    +0.371 A 
ATOM      8  O   UNL     1     -11.635  16.603  63.863  0.00  0.00    -0.243 OA
ATOM      9  N   UNL     1     -10.733  15.102  65.327  0.00  0.00    -0.190 NA
ENDROOT
BRANCH   1  10
ATOM     10  C   UNL     1      -9.648  13.326  66.676  0.00  0.00    +0.250 C 
BRANCH  10  13
ATOM     11  N   UNL     1     -11.938  11.828  68.017  0.00  0.00    +0.188 NA
ATOM     12  C   UNL     1     -11.507  12.979  68.392  0.00  0.00    +0.353 C 
ATOM     13  N   UNL     1     -10.351  13.647  67.886  0.00  0.00    -0.185 N 
ATOM     14  C   UNL     1     -10.216  14.878  68.646  0.00  0.00    +0.203 C 
ATOM     15  C   UNL     1     -11.034  14.695  69.890  0.00  0.00    +0.064 C 
ATOM     16  C   UNL     1     -12.138  13.771  69.462  0.00  0.00    +0.126 C 
ENDBRANCH  10  13
ENDBRANCH   1  10
TORSDOF 2
ENDMDL
MODEL 2
REMARK VINA RESULT:      -5.9      2.704      3.579
REMARK  Name = 
REMARK  2 active torsions:
REMARK  status: ('A' for Active; 'I' for Inactive)
REMARK    1  A    between atoms: N_6  and  C_7
REMARK    2  A    between atoms: C_7  and  C_8
REMARK                            x       y       z     vdW  Elec       q    Type
REMARK                         _______ _______ _______ _____ _____    ______ ____
ROOT
ATOM      1  C   UNL     1     -11.380  14.794  67.913  0.00  0.00    +0.126 A 
ATOM      2  C   UNL     1     -10.686  15.820  67.282  0.00  0.00    +0.133 A 
ATOM      3 CL   UNL     1     -10.308  17.228  68.256  0.00  0.00    -0.076 Cl
ATOM      4  C   UNL     1     -10.604  15.894  65.899  0.00  0.00    +0.295 A 
ATOM      5  O   UNL     1      -9.834  16.732  65.361  0.00  0.00    -0.264 OA
ATOM      6  N   UNL     1     -11.373  15.038  65.191  0.00  0.00    -0.151 NA
ATOM      7  C   UNL     1     -12.181  14.126  65.784  0.00  0.00    +0.371 A 
ATOM      8  O   UNL     1     -13.248  13.822  65.170  0.00  0.00    -0.243 OA
ATOM      9  N   UNL     1     -12.070  13.950  67.120  0.00  0.00    -0.190 NA
ENDROOT
BRANCH   1  10
ATOM     10  C   UNL     1     -10.865  14.380  69.245  0.00  0.00    +0.250 C 
BRANCH  10  13
ATOM     11  N   UNL     1     -12.317  12.205  70.811  0.00  0.00    +0.188 NA
ATOM     12  C   UNL     1     -12.582  13.460  70.896  0.00  0.00    +0.353 C 
ATOM     13  N   UNL     1     -11.836  14.517  70.295  0.00  0.00    -0.185 N 
ATOM     14  C   UNL     1     -12.461  15.760  70.716  0.00  0.00    +0.203 C 
ATOM     15  C   UNL     1     -13.288  15.425  71.922  0.00  0.00    +0.064 C 
ATOM     16  C   UNL     1     -13.699  13.999  71.692  0.00  0.00    +0.126 C 
ENDBRANCH  10  13
ENDBRANCH   1  10
TORSDOF 2
ENDMDL
MODEL 3
REMARK VINA RESULT:      -5.9      3.829      5.389
REMARK  Name = 
REMARK  2 active torsions:
REMARK  status: ('A' for Active; 'I' for Inactive)
REMARK    1  A    between atoms: N_6  and  C_7
REMARK    2  A    between atoms: C_7  and  C_8
REMARK                            x       y       z     vdW  Elec       q    Type
REMARK                         _______ _______ _______ _____ _____    ______ ____
ROOT
ATOM      1  C   UNL     1     -11.026  15.857  68.689  0.00  0.00    +0.126 A 
ATOM      2  C   UNL     1     -11.253  14.555  68.260  0.00  0.00    +0.133 A 
ATOM      3 CL   UNL     1     -11.078  14.252  66.542  0.00  0.00    -0.076 Cl
ATOM      4  C   UNL     1     -11.916  13.635  69.060  0.00  0.00    +0.295 A 
ATOM      5  O   UNL     1     -11.959  12.424  68.717  0.00  0.00    -0.264 OA
ATOM      6  N   UNL     1     -12.487  14.102  70.192  0.00  0.00    -0.151 NA
ATOM      7  C   UNL     1     -12.412  15.405  70.558  0.00  0.00    +0.371 A 
ATOM      8  O   UNL     1     -13.396  15.873  71.208  0.00  0.00    -0.243 OA
ATOM      9  N   UNL     1     -11.585  16.216  69.862  0.00  0.00    -0.190 NA
ENDROOT
BRANCH   1  10
ATOM     10  C   UNL     1      -9.794  16.510  68.171  0.00  0.00    +0.250 C 
BRANCH  10  13
ATOM     11  N   UNL     1     -10.551  17.490  65.386  0.00  0.00    +0.188 NA
ATOM     12  C   UNL     1     -10.235  18.261  66.364  0.00  0.00    +0.353 C 
ATOM     13  N   UNL     1     -10.016  17.854  67.715  0.00  0.00    -0.185 N 
ATOM     14  C   UNL     1      -9.751  19.063  68.476  0.00  0.00    +0.203 C 
ATOM     15  C   UNL     1     -10.266  20.202  67.646  0.00  0.00    +0.064 C 
ATOM     16  C   UNL     1     -10.099  19.722  66.233  0.00  0.00    +0.126 C 
ENDBRANCH  10  13
ENDBRANCH   1  10
TORSDOF 2
ENDMDL
MODEL 4
REMARK VINA RESULT:      -5.9      2.347      3.364
REMARK  Name = 
REMARK  2 active torsions:
REMARK  status: ('A' for Active; 'I' for Inactive)
REMARK    1  A    between atoms: N_6  and  C_7
REMARK    2  A    between atoms: C_7  and  C_8
REMARK                            x       y       z     vdW  Elec       q    Type
REMARK                         _______ _______ _______ _____ _____    ______ ____
ROOT
ATOM      1  C   UNL     1     -11.472  13.304  67.102  0.00  0.00    +0.126 A 
ATOM      2  C   UNL     1     -11.135  14.558  66.607  0.00  0.00    +0.133 A 
ATOM      3 CL   UNL     1     -11.002  15.855  67.780  0.00  0.00    -0.076 Cl
ATOM      4  C   UNL     1     -11.243  14.856  65.256  0.00  0.00    +0.295 A 
ATOM      5  O   UNL     1     -10.775  15.939  64.815  0.00  0.00    -0.264 OA
ATOM      6  N   UNL     1     -11.856  13.943  64.472  0.00  0.00    -0.151 NA
ATOM      7  C   UNL     1     -12.335  12.772  64.959  0.00  0.00    +0.371 A 
ATOM      8  O   UNL     1     -13.359  12.291  64.388  0.00  0.00    -0.243 OA
ATOM      9  N   UNL     1     -12.021  12.435  66.231  0.00  0.00    -0.190 NA
ENDROOT
BRANCH   1  10
ATOM     10  C   UNL     1     -10.712  12.847  68.296  0.00  0.00    +0.250 C 
BRANCH  10  13
ATOM     11  N   UNL     1     -12.456  14.057  70.483  0.00  0.00    +0.188 NA
ATOM     12  C   UNL     1     -12.221  12.800  70.356  0.00  0.00    +0.353 C 
ATOM     13  N   UNL     1     -11.533  12.181  69.268  0.00  0.00    -0.185 N 
ATOM     14  C   UNL     1     -11.565  10.750  69.516  0.00  0.00    +0.203 C 
ATOM     15  C   UNL     1     -12.664  10.521  70.512  0.00  0.00    +0.064 C 
ATOM     16  C   UNL     1     -12.687  11.787  71.319  0.00  0.00    +0.126 C 
ENDBRANCH  10  13
ENDBRANCH   1  10
TORSDOF 2
ENDMDL
MODEL 5
REMARK VINA RESULT:      -5.8      2.388      3.495
REMARK  Name = 
REMARK  2 active torsions:
REMARK  status: ('A' for Active; 'I' for Inactive)
REMARK    1  A    between atoms: N_6  and  C_7
REMARK    2  A    between atoms: C_7  and  C_8
REMARK                            x       y       z     vdW  Elec       q    Type
REMARK                         _______ _______ _______ _____ _____    ______ ____
ROOT
ATOM      1  C   UNL     1     -10.902  13.959  66.079  0.00  0.00    +0.126 A 
ATOM      2  C   UNL     1     -11.453  14.668  65.018  0.00  0.00    +0.133 A 
ATOM      3 CL   UNL     1     -12.315  13.732  63.811  0.00  0.00    -0.076 Cl
ATOM      4  C   UNL     1     -11.056  15.966  64.732  0.00  0.00    +0.295 A 
ATOM      5  O   UNL     1     -11.687  16.640  63.875  0.00  0.00    -0.264 OA
ATOM      6  N   UNL     1      -9.991  16.447  65.410  0.00  0.00    -0.151 NA
ATOM      7  C   UNL     1      -9.336  15.717  66.346  0.00  0.00    +0.371 A 
ATOM      8  O   UNL     1      -8.093  15.936  66.474  0.00  0.00    -0.243 OA
ATOM      9  N   UNL     1      -9.883  14.545  66.738  0.00  0.00    -0.190 NA
ENDROOT
BRANCH   1  10
ATOM     10  C   UNL     1     -11.795  12.965  66.734  0.00  0.00    +0.250 C 
BRANCH  10  13
ATOM     11  N   UNL     1     -12.070  10.758  68.818  0.00  0.00    +0.188 NA
ATOM     12  C   UNL     1     -11.315  10.685  67.780  0.00  0.00    +0.353 C 
ATOM     13  N   UNL     1     -11.267  11.629  66.710  0.00  0.00    -0.185 N 
ATOM     14  C   UNL     1     -10.328  11.104  65.734  0.00  0.00    +0.203 C 
ATOM     15  C   UNL     1     -10.182   9.642  66.036  0.00  0.00    +0.064 C 
ATOM     16  C   UNL     1     -10.404   9.557  67.519  0.00  0.00    +0.126 C 
ENDBRANCH  10  13
ENDBRANCH   1  10
TORSDOF 2
ENDMDL
MODEL 6
REMARK VINA RESULT:      -5.7      3.134      4.091
REMARK  Name = 
REMARK  2 active torsions:
REMARK  status: ('A' for Active; 'I' for Inactive)
REMARK    1  A    between atoms: N_6  and  C_7
REMARK    2  A    between atoms: C_7  and  C_8
REMARK                            x       y       z     vdW  Elec       q    Type
REMARK                         _______ _______ _______ _____ _____    ______ ____
ROOT
ATOM      1  C   UNL     1     -10.028  15.247  65.841  0.00  0.00    +0.126 A 
ATOM      2  C   UNL     1     -10.462  14.587  66.984  0.00  0.00    +0.133 A 
ATOM      3 CL   UNL     1      -9.219  14.013  68.079  0.00  0.00    -0.076 Cl
ATOM      4  C   UNL     1     -11.756  14.098  67.090  0.00  0.00    +0.295 A 
ATOM      5  O   UNL     1     -12.170  13.656  68.194  0.00  0.00    -0.264 OA
ATOM      6  N   UNL     1     -12.518  14.128  65.975  0.00  0.00    -0.151 NA
ATOM      7  C   UNL     1     -12.065  14.628  64.799  0.00  0.00    +0.371 A 
ATOM      8  O   UNL     1     -12.525  14.103  63.740  0.00  0.00    -0.243 OA
ATOM      9  N   UNL     1     -10.881  15.281  64.798  0.00  0.00    -0.190 NA
ENDROOT
BRANCH   1  10
ATOM     10  C   UNL     1      -8.992  16.295  66.044  0.00  0.00    +0.250 C 
BRANCH  10  13
ATOM     11  N   UNL     1     -10.815  18.626  65.313  0.00  0.00    +0.188 NA
ATOM     12  C   UNL     1     -10.186  18.520  66.429  0.00  0.00    +0.353 C 
ATOM     13  N   UNL     1      -9.442  17.383  66.867  0.00  0.00    -0.185 N 
ATOM     14  C   UNL     1      -8.968  17.687  68.207  0.00  0.00    +0.203 C 
ATOM     15  C   UNL     1      -9.822  18.814  68.707  0.00  0.00    +0.064 C 
ATOM     16  C   UNL     1     -10.188  19.570  67.462  0.00  0.00    +0.126 C 
ENDBRANCH  10  13
ENDBRANCH   1  10
TORSDOF 2
ENDMDL
MODEL 7
REMARK VINA RESULT:      -5.7      2.958      3.965
REMARK  Name = 
REMARK  2 active torsions:
REMARK  status: ('A' for Active; 'I' for Inactive)
REMARK    1  A    between atoms: N_6  and  C_7
REMARK    2  A    between atoms: C_7  and  C_8
REMARK                            x       y       z     vdW  Elec       q    Type
REMARK                         _______ _______ _______ _____ _____    ______ ____
ROOT
ATOM      1  C   UNL     1     -11.144  14.634  66.449  0.00  0.00    +0.126 A 
ATOM      2  C   UNL     1     -11.020  13.357  66.984  0.00  0.00    +0.133 A 
ATOM      3 CL   UNL     1      -9.624  13.065  68.004  0.00  0.00    -0.076 Cl
ATOM      4  C   UNL     1     -11.740  12.286  66.474  0.00  0.00    +0.295 A 
ATOM      5  O   UNL     1     -11.735  11.183  67.081  0.00  0.00    -0.264 OA
ATOM      6  N   UNL     1     -12.424  12.495  65.328  0.00  0.00    -0.151 NA
ATOM      7  C   UNL     1     -12.437  13.695  64.698  0.00  0.00    +0.371 A 
ATOM      8  O   UNL     1     -12.542  13.677  63.435  0.00  0.00    -0.243 OA
ATOM      9  N   UNL     1     -11.899  14.757  65.339  0.00  0.00    -0.190 NA
ENDROOT
BRANCH   1  10
ATOM     10  C   UNL     1     -10.951  15.762  67.399  0.00  0.00    +0.250 C 
BRANCH  10  13
ATOM     11  N   UNL     1     -10.727  18.788  67.682  0.00  0.00    +0.188 NA
ATOM     12  C   UNL     1      -9.870  18.052  67.070  0.00  0.00    +0.353 C 
ATOM     13  N   UNL     1      -9.861  16.625  67.039  0.00  0.00    -0.185 N 
ATOM     14  C   UNL     1      -8.678  16.232  66.291  0.00  0.00    +0.203 C 
ATOM     15  C   UNL     1      -7.771  17.427  66.284  0.00  0.00    +0.064 C 
ATOM     16  C   UNL     1      -8.714  18.595  66.335  0.00  0.00    +0.126 C 
ENDBRANCH  10  13
ENDBRANCH   1  10
TORSDOF 2
ENDMDL
MODEL 8
REMARK VINA RESULT:      -5.7      2.855      4.033
REMARK  Name = 
REMARK  2 active torsions:
REMARK  status: ('A' for Active; 'I' for Inactive)
REMARK    1  A    between atoms: N_6  and  C_7
REMARK    2  A    between atoms: C_7  and  C_8
REMARK                            x       y       z     vdW  Elec       q    Type
REMARK                         _______ _______ _______ _____ _____    ______ ____
ROOT
ATOM      1  C   UNL     1     -10.532  14.440  66.193  0.00  0.00    +0.126 A 
ATOM      2  C   UNL     1     -11.292  14.467  65.029  0.00  0.00    +0.133 A 
ATOM      3 CL   UNL     1     -11.603  16.045  64.330  0.00  0.00    -0.076 Cl
ATOM      4  C   UNL     1     -12.052  13.375  64.636  0.00  0.00    +0.295 A 
ATOM      5  O   UNL     1     -12.594  13.366  63.499  0.00  0.00    -0.264 OA
ATOM      6  N   UNL     1     -12.167  12.357  65.517  0.00  0.00    -0.151 NA
ATOM      7  C   UNL     1     -11.560  12.372  66.728  0.00  0.00    +0.371 A 
ATOM      8  O   UNL     1     -12.152  11.767  67.672  0.00  0.00    -0.243 OA
ATOM      9  N   UNL     1     -10.666  13.354  66.980  0.00  0.00    -0.190 NA
ENDROOT
BRANCH   1  10
ATOM     10  C   UNL     1      -9.288  15.256  66.180  0.00  0.00    +0.250 C 
BRANCH  10  13
ATOM     11  N   UNL     1      -7.755  17.848  65.712  0.00  0.00    +0.188 NA
ATOM     12  C   UNL     1      -8.596  17.665  66.667  0.00  0.00    +0.353 C 
ATOM     13  N   UNL     1      -9.438  16.525  66.836  0.00  0.00    -0.185 N 
ATOM     14  C   UNL     1     -10.261  16.785  68.005  0.00  0.00    +0.203 C 
ATOM     15  C   UNL     1     -10.206  18.266  68.234  0.00  0.00    +0.064 C 
ATOM     16  C   UNL     1      -8.850  18.660  67.723  0.00  0.00    +0.126 C 
ENDBRANCH  10  13
ENDBRANCH   1  10
TORSDOF 2
ENDMDL
MODEL 9
REMARK VINA RESULT:      -5.6      2.966      4.526
REMARK  Name = 
REMARK  2 active torsions:
REMARK  status: ('A' for Active; 'I' for Inactive)
REMARK    1  A    between atoms: N_6  and  C_7
REMARK    2  A    between atoms: C_7  and  C_8
REMARK                            x       y       z     vdW  Elec       q    Type
REMARK                         _______ _______ _______ _____ _____    ______ ____
ROOT
ATOM      1  C   UNL     1     -10.424  15.295  66.343  0.00  0.00    +0.126 A 
ATOM      2  C   UNL     1     -10.999  15.372  67.606  0.00  0.00    +0.133 A 
ATOM      3 CL   UNL     1     -12.012  14.025  68.091  0.00  0.00    -0.076 Cl
ATOM      4  C   UNL     1     -11.068  16.573  68.297  0.00  0.00    +0.295 A 
ATOM      5  O   UNL     1     -11.440  16.582  69.500  0.00  0.00    -0.264 OA
ATOM      6  N   UNL     1     -10.719  17.691  67.624  0.00  0.00    -0.151 NA
ATOM      7  C   UNL     1     -10.299  17.662  66.336  0.00  0.00    +0.371 A 
ATOM      8  O   UNL     1     -10.574  18.673  65.622  0.00  0.00    -0.243 OA
ATOM      9  N   UNL     1     -10.049  16.458  65.774  0.00  0.00    -0.190 NA
ENDROOT
BRANCH   1  10
ATOM     10  C   UNL     1      -9.769  14.004  66.001  0.00  0.00    +0.250 C 
BRANCH  10  13
ATOM     11  N   UNL     1      -9.306  11.115  65.148  0.00  0.00    +0.188 NA
ATOM     12  C   UNL     1     -10.216  11.878  64.658  0.00  0.00    +0.353 C 
ATOM     13  N   UNL     1     -10.559  13.182  65.128  0.00  0.00    -0.185 N 
ATOM     14  C   UNL     1     -11.679  13.634  64.320  0.00  0.00    +0.203 C 
ATOM     15  C   UNL     1     -12.266  12.404  63.693  0.00  0.00    +0.064 C 
ATOM     16  C   UNL     1     -11.091  11.482  63.541  0.00  0.00    +0.126 C 
ENDBRANCH  10  13
ENDBRANCH   1  10
TORSDOF 2
ENDMDL
