MODEL 1
REMARK VINA RESULT:      -7.8      0.000      0.000
REMARK  Name = 
REMARK  7 active torsions:
REMARK  status: ('A' for Active; 'I' for Inactive)
REMARK    1  A    between atoms: C_2  and  C_4
REMARK    2  A    between atoms: C_8  and  C_9
REMARK    3  A    between atoms: C_12  and  S_13
REMARK    4  A    between atoms: S_13  and  C_14
REMARK    5  A    between atoms: C_17  and  C_18
REMARK    6  A    between atoms: C_18  and  N_19
REMARK    7  A    between atoms: N_19  and  S_20
REMARK                            x       y       z     vdW  Elec       q    Type
REMARK                         _______ _______ _______ _____ _____    ______ ____
ROOT
ATOM      1  C   UNL     1     -10.687  13.657  64.830  0.00  0.00    +0.126 C 
ATOM      2  C   UNL     1      -9.882  14.048  66.242  0.00  0.00    +0.096 C 
ATOM      3  N   UNL     1     -11.278  14.501  66.727  0.00  0.00    -0.254 N 
ATOM      4  C   UNL     1     -10.751  15.365  67.741  0.00  0.00    +0.136 C 
ATOM      5  C   UNL     1      -9.924  16.242  67.247  0.00  0.00    +0.024 C 
ATOM      6  C   UNL     1      -9.384  15.633  65.872  0.00  0.00    +0.049 C 
ATOM      7  C   UNL     1     -10.686  16.132  65.049  0.00  0.00    +0.007 C 
ATOM      8  C   UNL     1     -11.993  14.019  65.635  0.00  0.00    +0.233 C 
ATOM      9  O   UNL     1     -13.187  14.056  65.419  0.00  0.00    -0.274 OA
ENDROOT
BRANCH   4  10
ATOM     10  C   UNL     1     -11.232  15.339  69.109  0.00  0.00    +0.401 C 
ATOM     11  O   UNL     1     -12.308  16.174  69.442  0.00  0.00    -0.239 OA
ATOM     12  O   UNL     1     -10.556  14.985  70.115  0.00  0.00    -0.239 OA
ENDBRANCH   4  10
BRANCH   1  14
ATOM     13  C   UNL     1     -11.293  11.588  63.829  0.00  0.00    +0.036 C 
ATOM     14  C   UNL     1     -10.916  12.051  65.358  0.00  0.00    +0.162 C 
ATOM     15  O   UNL     1      -9.467  11.683  65.186  0.00  0.00    -0.223 OA
ENDBRANCH   1  14
BRANCH   5  16
ATOM     16  S   UNL     1     -10.102  18.025  67.499  0.00  0.00    -0.116 S 
BRANCH  16  17
ATOM     17  C   UNL     1      -8.311  18.643  67.688  0.00  0.00    +0.070 C 
ATOM     18  C   UNL     1      -8.350  19.598  68.963  0.00  0.00    +0.031 C 
ATOM     19  C   UNL     1      -6.711  19.575  68.773  0.00  0.00    +0.093 C 
ATOM     20  N   UNL     1      -6.603  18.049  69.117  0.00  0.00    -0.217 NA
ATOM     21  C   UNL     1      -7.830  17.500  68.687  0.00  0.00    +0.100 C 
BRANCH  19  22
ATOM     22  C   UNL     1      -6.387  20.003  70.317  0.00  0.00    +0.134 C 
BRANCH  22  23
ATOM     23  N   UNL     1      -5.285  20.874  70.135  0.00  0.00    -0.063 NA
BRANCH  23  24
ATOM     24  S   UNL     1      -4.243  21.161  71.418  0.00  0.00    +0.146 S 
ATOM     25  O   UNL     1      -3.960  20.000  72.314  0.00  0.00    -0.137 OA
ATOM     26  O   UNL     1      -4.586  22.311  72.302  0.00  0.00    -0.137 OA
ATOM     27  N   UNL     1      -2.717  21.558  70.671  0.00  0.00    +0.053 NA
ENDBRANCH  23  24
ENDBRANCH  22  23
ENDBRANCH  19  22
ENDBRANCH  16  17
ENDBRANCH   5  16
TORSDOF 7
ENDMDL
MODEL 2
REMARK VINA RESULT:      -7.4      3.449      8.512
REMARK  Name = 
REMARK  7 active torsions:
REMARK  status: ('A' for Active; 'I' for Inactive)
REMARK    1  A    between atoms: C_2  and  C_4
REMARK    2  A    between atoms: C_8  and  C_9
REMARK    3  A    between atoms: C_12  and  S_13
REMARK    4  A    between atoms: S_13  and  C_14
REMARK    5  A    between atoms: C_17  and  C_18
REMARK    6  A    between atoms: C_18  and  N_19
REMARK    7  A    between atoms: N_19  and  S_20
REMARK                            x       y       z     vdW  Elec       q    Type
REMARK                         _______ _______ _______ _____ _____    ______ ____
ROOT
ATOM      1  C   UNL     1      -5.662  19.375  66.266  0.00  0.00    +0.126 C 
ATOM      2  C   UNL     1      -6.936  18.411  65.774  0.00  0.00    +0.096 C 
ATOM      3  N   UNL     1      -7.809  19.479  66.470  0.00  0.00    -0.254 N 
ATOM      4  C   UNL     1      -8.927  18.599  66.631  0.00  0.00    +0.136 C 
ATOM      5  C   UNL     1      -8.599  17.513  67.275  0.00  0.00    +0.024 C 
ATOM      6  C   UNL     1      -7.022  17.335  67.090  0.00  0.00    +0.049 C 
ATOM      7  C   UNL     1      -6.685  18.365  68.292  0.00  0.00    +0.007 C 
ATOM      8  C   UNL     1      -6.782  20.381  66.730  0.00  0.00    +0.233 C 
ATOM      9  O   UNL     1      -6.831  21.468  67.270  0.00  0.00    -0.274 OA
ENDROOT
BRANCH   4  10
ATOM     10  C   UNL     1     -10.275  18.980  66.256  0.00  0.00    +0.401 C 
ATOM     11  O   UNL     1     -11.094  19.548  67.242  0.00  0.00    -0.239 OA
ATOM     12  O   UNL     1     -10.931  18.494  65.294  0.00  0.00    -0.239 OA
ENDBRANCH   4  10
BRANCH   1  14
ATOM     13  C   UNL     1      -4.191  20.849  65.121  0.00  0.00    +0.036 C 
ATOM     14  C   UNL     1      -5.661  20.205  64.776  0.00  0.00    +0.162 C 
ATOM     15  O   UNL     1      -5.056  19.052  64.021  0.00  0.00    -0.223 OA
ENDBRANCH   1  14
BRANCH   5  16
ATOM     16  S   UNL     1      -9.458  16.945  68.761  0.00  0.00    -0.116 S 
BRANCH  16  17
ATOM     17  C   UNL     1     -10.935  15.952  68.087  0.00  0.00    +0.070 C 
ATOM     18  C   UNL     1     -10.282  14.882  67.101  0.00  0.00    +0.031 C 
ATOM     19  C   UNL     1     -11.814  14.271  67.081  0.00  0.00    +0.093 C 
ATOM     20  N   UNL     1     -11.767  13.862  68.593  0.00  0.00    -0.217 NA
ATOM     21  C   UNL     1     -10.900  14.803  69.189  0.00  0.00    +0.100 C 
BRANCH  19  22
ATOM     22  C   UNL     1     -11.360  12.775  66.605  0.00  0.00    +0.134 C 
BRANCH  22  23
ATOM     23  N   UNL     1     -12.402  12.445  65.704  0.00  0.00    -0.063 NA
BRANCH  23  24
ATOM     24  S   UNL     1     -12.200  12.752  64.067  0.00  0.00    +0.146 S 
ATOM     25  O   UNL     1     -12.542  14.131  63.604  0.00  0.00    -0.137 OA
ATOM     26  O   UNL     1     -12.870  11.807  63.130  0.00  0.00    -0.137 OA
ATOM     27  N   UNL     1     -10.485  12.579  63.790  0.00  0.00    +0.053 NA
ENDBRANCH  23  24
ENDBRANCH  22  23
ENDBRANCH  19  22
ENDBRANCH  16  17
ENDBRANCH   5  16
TORSDOF 7
ENDMDL
MODEL 3
REMARK VINA RESULT:      -7.4      2.454      3.892
REMARK  Name = 
REMARK  7 active torsions:
REMARK  status: ('A' for Active; 'I' for Inactive)
REMARK    1  A    between atoms: C_2  and  C_4
REMARK    2  A    between atoms: C_8  and  C_9
REMARK    3  A    between atoms: C_12  and  S_13
REMARK    4  A    between atoms: S_13  and  C_14
REMARK    5  A    between atoms: C_17  and  C_18
REMARK    6  A    between atoms: C_18  and  N_19
REMARK    7  A    between atoms: N_19  and  S_20
REMARK                            x       y       z     vdW  Elec       q    Type
REMARK                         _______ _______ _______ _____ _____    ______ ____
ROOT
ATOM      1  C   UNL     1     -10.616  15.149  69.371  0.00  0.00    +0.126 C 
ATOM      2  C   UNL     1     -10.190  16.743  69.107  0.00  0.00    +0.096 C 
ATOM      3  N   UNL     1     -10.612  16.451  67.649  0.00  0.00    -0.254 N 
ATOM      4  C   UNL     1      -9.842  17.531  67.108  0.00  0.00    +0.136 C 
ATOM      5  C   UNL     1      -8.586  17.447  67.446  0.00  0.00    +0.024 C 
ATOM      6  C   UNL     1      -8.532  16.558  68.772  0.00  0.00    +0.049 C 
ATOM      7  C   UNL     1      -8.586  15.171  67.940  0.00  0.00    +0.007 C 
ATOM      8  C   UNL     1     -11.138  15.184  67.885  0.00  0.00    +0.233 C 
ATOM      9  O   UNL     1     -11.656  14.409  67.107  0.00  0.00    -0.274 OA
ENDROOT
BRANCH   4  10
ATOM     10  C   UNL     1     -10.399  18.486  66.169  0.00  0.00    +0.401 C 
ATOM     11  O   UNL     1     -10.921  17.994  64.965  0.00  0.00    -0.239 OA
ATOM     12  O   UNL     1     -10.102  19.711  66.111  0.00  0.00    -0.239 OA
ENDBRANCH   4  10
BRANCH   1  14
ATOM     13  C   UNL     1     -12.444  14.118  70.487  0.00  0.00    +0.036 C 
ATOM     14  C   UNL     1     -12.192  15.605  69.839  0.00  0.00    +0.162 C 
ATOM     15  O   UNL     1     -11.742  16.178  71.156  0.00  0.00    -0.223 OA
ENDBRANCH   1  14
BRANCH   5  16
ATOM     16  S   UNL     1      -7.234  17.457  66.244  0.00  0.00    -0.116 S 
BRANCH  16  17
ATOM     17  C   UNL     1      -6.237  19.016  66.689  0.00  0.00    +0.070 C 
ATOM     18  C   UNL     1      -5.873  18.833  68.230  0.00  0.00    +0.031 C 
ATOM     19  C   UNL     1      -4.932  20.160  67.954  0.00  0.00    +0.093 C 
ATOM     20  N   UNL     1      -3.980  19.391  66.974  0.00  0.00    -0.217 NA
ATOM     21  C   UNL     1      -4.798  18.404  66.384  0.00  0.00    +0.100 C 
BRANCH  19  22
ATOM     22  C   UNL     1      -3.936  19.890  69.222  0.00  0.00    +0.134 C 
BRANCH  22  23
ATOM     23  N   UNL     1      -4.105  21.086  69.962  0.00  0.00    -0.063 NA
BRANCH  23  24
ATOM     24  S   UNL     1      -4.447  20.995  71.602  0.00  0.00    +0.146 S 
ATOM     25  O   UNL     1      -4.433  22.286  72.354  0.00  0.00    -0.137 OA
ATOM     26  O   UNL     1      -3.632  20.030  72.393  0.00  0.00    -0.137 OA
ATOM     27  N   UNL     1      -6.094  20.425  71.683  0.00  0.00    +0.053 NA
ENDBRANCH  23  24
ENDBRANCH  22  23
ENDBRANCH  19  22
ENDBRANCH  16  17
ENDBRANCH   5  16
TORSDOF 7
ENDMDL
MODEL 4
REMARK VINA RESULT:      -7.4      2.183      3.722
REMARK  Name = 
REMARK  7 active torsions:
REMARK  status: ('A' for Active; 'I' for Inactive)
REMARK    1  A    between atoms: C_2  and  C_4
REMARK    2  A    between atoms: C_8  and  C_9
REMARK    3  A    between atoms: C_12  and  S_13
REMARK    4  A    between atoms: S_13  and  C_14
REMARK    5  A    between atoms: C_17  and  C_18
REMARK    6  A    between atoms: C_18  and  N_19
REMARK    7  A    between atoms: N_19  and  S_20
REMARK                            x       y       z     vdW  Elec       q    Type
REMARK                         _______ _______ _______ _____ _____    ______ ____
ROOT
ATOM      1  C   UNL     1     -11.004  15.098  69.867  0.00  0.00    +0.126 C 
ATOM      2  C   UNL     1     -11.393  16.209  68.680  0.00  0.00    +0.096 C 
ATOM      3  N   UNL     1     -10.643  15.235  67.743  0.00  0.00    -0.254 N 
ATOM      4  C   UNL     1     -10.392  16.234  66.748  0.00  0.00    +0.136 C 
ATOM      5  C   UNL     1      -9.765  17.264  67.244  0.00  0.00    +0.024 C 
ATOM      6  C   UNL     1     -10.065  17.265  68.813  0.00  0.00    +0.049 C 
ATOM      7  C   UNL     1      -8.899  16.184  69.116  0.00  0.00    +0.007 C 
ATOM      8  C   UNL     1     -10.467  14.218  68.676  0.00  0.00    +0.233 C 
ATOM      9  O   UNL     1      -9.935  13.134  68.543  0.00  0.00    -0.274 OA
ENDROOT
BRANCH   4  10
ATOM     10  C   UNL     1     -10.669  16.014  65.341  0.00  0.00    +0.401 C 
ATOM     11  O   UNL     1     -11.100  17.110  64.580  0.00  0.00    -0.239 OA
ATOM     12  O   UNL     1     -10.971  14.905  64.820  0.00  0.00    -0.239 OA
ENDBRANCH   4  10
BRANCH   1  14
ATOM     13  C   UNL     1     -12.209  13.395  71.006  0.00  0.00    +0.036 C 
ATOM     14  C   UNL     1     -12.497  14.298  69.665  0.00  0.00    +0.162 C 
ATOM     15  O   UNL     1     -13.268  15.331  70.443  0.00  0.00    -0.223 OA
ENDBRANCH   1  14
BRANCH   5  16
ATOM     16  S   UNL     1      -8.214  17.901  66.565  0.00  0.00    -0.116 S 
BRANCH  16  17
ATOM     17  C   UNL     1      -7.819  19.408  67.659  0.00  0.00    +0.070 C 
ATOM     18  C   UNL     1      -6.388  19.086  68.282  0.00  0.00    +0.031 C 
ATOM     19  C   UNL     1      -6.494  20.646  68.808  0.00  0.00    +0.093 C 
ATOM     20  N   UNL     1      -6.444  21.233  67.355  0.00  0.00    -0.217 NA
ATOM     21  C   UNL     1      -7.034  20.237  66.548  0.00  0.00    +0.100 C 
BRANCH  19  22
ATOM     22  C   UNL     1      -4.882  20.837  69.000  0.00  0.00    +0.134 C 
BRANCH  22  23
ATOM     23  N   UNL     1      -4.804  21.135  70.383  0.00  0.00    -0.063 NA
BRANCH  23  24
ATOM     24  S   UNL     1      -4.232  19.967  71.443  0.00  0.00    +0.146 S 
ATOM     25  O   UNL     1      -5.251  19.038  72.018  0.00  0.00    -0.137 OA
ATOM     26  O   UNL     1      -3.408  20.459  72.583  0.00  0.00    -0.137 OA
ATOM     27  N   UNL     1      -3.179  18.966  70.476  0.00  0.00    +0.053 NA
ENDBRANCH  23  24
ENDBRANCH  22  23
ENDBRANCH  19  22
ENDBRANCH  16  17
ENDBRANCH   5  16
TORSDOF 7
ENDMDL
MODEL 5
REMARK VINA RESULT:      -7.1      4.503      8.895
REMARK  Name = 
REMARK  7 active torsions:
REMARK  status: ('A' for Active; 'I' for Inactive)
REMARK    1  A    between atoms: C_2  and  C_4
REMARK    2  A    between atoms: C_8  and  C_9
REMARK    3  A    between atoms: C_12  and  S_13
REMARK    4  A    between atoms: S_13  and  C_14
REMARK    5  A    between atoms: C_17  and  C_18
REMARK    6  A    between atoms: C_18  and  N_19
REMARK    7  A    between atoms: N_19  and  S_20
REMARK                            x       y       z     vdW  Elec       q    Type
REMARK                         _______ _______ _______ _____ _____    ______ ____
ROOT
ATOM      1  C   UNL     1      -8.156  18.997  67.499  0.00  0.00    +0.126 C 
ATOM      2  C   UNL     1      -8.196  17.419  66.950  0.00  0.00    +0.096 C 
ATOM      3  N   UNL     1      -9.543  17.838  66.319  0.00  0.00    -0.254 N 
ATOM      4  C   UNL     1     -10.028  16.494  66.226  0.00  0.00    +0.136 C 
ATOM      5  C   UNL     1     -10.016  15.894  67.383  0.00  0.00    +0.024 C 
ATOM      6  C   UNL     1      -8.939  16.660  68.280  0.00  0.00    +0.049 C 
ATOM      7  C   UNL     1      -9.990  17.820  68.691  0.00  0.00    +0.007 C 
ATOM      8  C   UNL     1      -9.442  19.195  66.611  0.00  0.00    +0.233 C 
ATOM      9  O   UNL     1     -10.213  20.097  66.353  0.00  0.00    -0.274 OA
ENDROOT
BRANCH   4  10
ATOM     10  C   UNL     1     -10.605  15.960  65.007  0.00  0.00    +0.401 C 
ATOM     11  O   UNL     1     -11.399  16.814  64.228  0.00  0.00    -0.239 OA
ATOM     12  O   UNL     1     -10.828  14.739  64.777  0.00  0.00    -0.239 OA
ENDBRANCH   4  10
BRANCH   1  14
ATOM     13  C   UNL     1      -6.826  20.876  66.906  0.00  0.00    +0.036 C 
ATOM     14  C   UNL     1      -7.252  19.489  66.138  0.00  0.00    +0.162 C 
ATOM     15  O   UNL     1      -6.004  18.777  66.585  0.00  0.00    -0.223 OA
ENDBRANCH   1  14
BRANCH   5  16
ATOM     16  S   UNL     1     -11.475  15.104  68.105  0.00  0.00    -0.116 S 
BRANCH  16  17
ATOM     17  C   UNL     1     -10.905  13.324  68.460  0.00  0.00    +0.070 C 
ATOM     18  C   UNL     1     -11.779  12.865  69.712  0.00  0.00    +0.031 C 
ATOM     19  C   UNL     1     -11.108  11.395  69.381  0.00  0.00    +0.093 C 
ATOM     20  N   UNL     1     -11.844  11.268  68.003  0.00  0.00    -0.217 NA
ATOM     21  C   UNL     1     -12.002  12.599  67.560  0.00  0.00    +0.100 C 
BRANCH  19  22
ATOM     22  C   UNL     1     -12.271  10.536  70.144  0.00  0.00    +0.134 C 
BRANCH  22  23
ATOM     23  N   UNL     1     -11.587   9.325  70.411  0.00  0.00    -0.063 NA
BRANCH  23  24
ATOM     24  S   UNL     1     -12.283   8.199  71.442  0.00  0.00    +0.146 S 
ATOM     25  O   UNL     1     -11.658   8.062  72.792  0.00  0.00    -0.137 OA
ATOM     26  O   UNL     1     -12.442   6.819  70.901  0.00  0.00    -0.137 OA
ATOM     27  N   UNL     1     -13.896   8.798  71.731  0.00  0.00    +0.053 NA
ENDBRANCH  23  24
ENDBRANCH  22  23
ENDBRANCH  19  22
ENDBRANCH  16  17
ENDBRANCH   5  16
TORSDOF 7
ENDMDL
MODEL 6
REMARK VINA RESULT:      -7.0      1.909      3.043
REMARK  Name = 
REMARK  7 active torsions:
REMARK  status: ('A' for Active; 'I' for Inactive)
REMARK    1  A    between atoms: C_2  and  C_4
REMARK    2  A    between atoms: C_8  and  C_9
REMARK    3  A    between atoms: C_12  and  S_13
REMARK    4  A    between atoms: S_13  and  C_14
REMARK    5  A    between atoms: C_17  and  C_18
REMARK    6  A    between atoms: C_18  and  N_19
REMARK    7  A    between atoms: N_19  and  S_20
REMARK                            x       y       z     vdW  Elec       q    Type
REMARK                         _______ _______ _______ _____ _____    ______ ____
ROOT
ATOM      1  C   UNL     1     -10.039  12.768  68.072  0.00  0.00    +0.126 C 
ATOM      2  C   UNL     1     -10.770  14.245  67.797  0.00  0.00    +0.096 C 
ATOM      3  N   UNL     1     -10.331  14.014  66.333  0.00  0.00    -0.254 N 
ATOM      4  C   UNL     1     -10.393  15.404  65.994  0.00  0.00    +0.136 C 
ATOM      5  C   UNL     1      -9.652  16.129  66.784  0.00  0.00    +0.024 C 
ATOM      6  C   UNL     1      -9.469  15.290  68.131  0.00  0.00    +0.049 C 
ATOM      7  C   UNL     1      -8.260  14.409  67.510  0.00  0.00    +0.007 C 
ATOM      8  C   UNL     1      -9.878  12.709  66.506  0.00  0.00    +0.233 C 
ATOM      9  O   UNL     1      -9.405  11.944  65.690  0.00  0.00    -0.274 OA
ENDROOT
BRANCH   4  10
ATOM     10  C   UNL     1     -11.078  15.882  64.808  0.00  0.00    +0.401 C 
ATOM     11  O   UNL     1     -11.219  17.268  64.647  0.00  0.00    -0.239 OA
ATOM     12  O   UNL     1     -11.912  15.222  64.129  0.00  0.00    -0.239 OA
ENDBRANCH   4  10
BRANCH   1  14
ATOM     13  C   UNL     1     -10.851  10.563  68.431  0.00  0.00    +0.036 C 
ATOM     14  C   UNL     1     -11.520  11.949  67.860  0.00  0.00    +0.162 C 
ATOM     15  O   UNL     1     -12.043  12.337  69.216  0.00  0.00    -0.223 OA
ENDBRANCH   1  14
BRANCH   5  16
ATOM     16  S   UNL     1      -8.378  17.264  66.182  0.00  0.00    -0.116 S 
BRANCH  16  17
ATOM     17  C   UNL     1      -8.119  18.472  67.630  0.00  0.00    +0.070 C 
ATOM     18  C   UNL     1      -6.585  18.296  68.029  0.00  0.00    +0.031 C 
ATOM     19  C   UNL     1      -6.897  19.603  68.986  0.00  0.00    +0.093 C 
ATOM     20  N   UNL     1      -7.137  20.554  67.763  0.00  0.00    -0.217 NA
ATOM     21  C   UNL     1      -7.640  19.710  66.749  0.00  0.00    +0.100 C 
BRANCH  19  22
ATOM     22  C   UNL     1      -5.333  20.063  69.107  0.00  0.00    +0.134 C 
BRANCH  22  23
ATOM     23  N   UNL     1      -5.420  21.073  70.095  0.00  0.00    -0.063 NA
BRANCH  23  24
ATOM     24  S   UNL     1      -4.202  21.209  71.240  0.00  0.00    +0.146 S 
ATOM     25  O   UNL     1      -4.409  22.231  72.309  0.00  0.00    -0.137 OA
ATOM     26  O   UNL     1      -2.822  21.413  70.714  0.00  0.00    -0.137 OA
ATOM     27  N   UNL     1      -4.188  19.669  72.061  0.00  0.00    +0.053 NA
ENDBRANCH  23  24
ENDBRANCH  22  23
ENDBRANCH  19  22
ENDBRANCH  16  17
ENDBRANCH   5  16
TORSDOF 7
ENDMDL
MODEL 7
REMARK VINA RESULT:      -7.0      5.143      6.836
REMARK  Name = 
REMARK  7 active torsions:
REMARK  status: ('A' for Active; 'I' for Inactive)
REMARK    1  A    between atoms: C_2  and  C_4
REMARK    2  A    between atoms: C_8  and  C_9
REMARK    3  A    between atoms: C_12  and  S_13
REMARK    4  A    between atoms: S_13  and  C_14
REMARK    5  A    between atoms: C_17  and  C_18
REMARK    6  A    between atoms: C_18  and  N_19
REMARK    7  A    between atoms: N_19  and  S_20
REMARK                            x       y       z     vdW  Elec       q    Type
REMARK                         _______ _______ _______ _____ _____    ______ ____
ROOT
ATOM      1  C   UNL     1      -9.363   8.913  67.281  0.00  0.00    +0.126 C 
ATOM      2  C   UNL     1     -10.684   9.937  67.258  0.00  0.00    +0.096 C 
ATOM      3  N   UNL     1     -10.186  10.293  65.839  0.00  0.00    -0.254 N 
ATOM      4  C   UNL     1     -10.870  11.550  65.810  0.00  0.00    +0.136 C 
ATOM      5  C   UNL     1     -10.538  12.305  66.819  0.00  0.00    +0.024 C 
ATOM      6  C   UNL     1      -9.997  11.327  67.959  0.00  0.00    +0.049 C 
ATOM      7  C   UNL     1      -8.520  11.249  67.301  0.00  0.00    +0.007 C 
ATOM      8  C   UNL     1      -9.192   9.321  65.769  0.00  0.00    +0.233 C 
ATOM      9  O   UNL     1      -8.423   9.070  64.863  0.00  0.00    -0.274 OA
ENDROOT
BRANCH   4  10
ATOM     10  C   UNL     1     -11.696  11.958  64.689  0.00  0.00    +0.401 C 
ATOM     11  O   UNL     1     -12.946  12.528  64.969  0.00  0.00    -0.239 OA
ATOM     12  O   UNL     1     -11.620  11.493  63.518  0.00  0.00    -0.239 OA
ENDBRANCH   4  10
BRANCH   1  14
ATOM     13  C   UNL     1      -9.056   6.578  66.956  0.00  0.00    +0.036 C 
ATOM     14  C   UNL     1     -10.313   7.608  66.727  0.00  0.00    +0.162 C 
ATOM     15  O   UNL     1     -10.887   7.319  68.088  0.00  0.00    -0.223 OA
ENDBRANCH   1  14
BRANCH   5  16
ATOM     16  S   UNL     1      -9.916  13.993  66.631  0.00  0.00    -0.116 S 
BRANCH  16  17
ATOM     17  C   UNL     1     -11.173  15.056  67.586  0.00  0.00    +0.070 C 
ATOM     18  C   UNL     1     -10.986  14.625  69.109  0.00  0.00    +0.031 C 
ATOM     19  C   UNL     1     -11.994  15.903  69.380  0.00  0.00    +0.093 C 
ATOM     20  N   UNL     1     -10.945  16.953  68.876  0.00  0.00    -0.217 NA
ATOM     21  C   UNL     1     -10.182  16.259  67.912  0.00  0.00    +0.100 C 
BRANCH  19  22
ATOM     22  C   UNL     1     -11.539  16.111  70.936  0.00  0.00    +0.134 C 
BRANCH  22  23
ATOM     23  N   UNL     1     -11.944  14.880  71.507  0.00  0.00    -0.063 NA
BRANCH  23  24
ATOM     24  S   UNL     1     -13.232  14.858  72.582  0.00  0.00    +0.146 S 
ATOM     25  O   UNL     1     -13.975  13.567  72.697  0.00  0.00    -0.137 OA
ATOM     26  O   UNL     1     -14.254  15.928  72.409  0.00  0.00    -0.137 OA
ATOM     27  N   UNL     1     -12.509  15.123  74.148  0.00  0.00    +0.053 NA
ENDBRANCH  23  24
ENDBRANCH  22  23
ENDBRANCH  19  22
ENDBRANCH  16  17
ENDBRANCH   5  16
TORSDOF 7
ENDMDL
MODEL 8
REMARK VINA RESULT:      -7.0      3.872      8.434
REMARK  Name = 
REMARK  7 active torsions:
REMARK  status: ('A' for Active; 'I' for Inactive)
REMARK    1  A    between atoms: C_2  and  C_4
REMARK    2  A    between atoms: C_8  and  C_9
REMARK    3  A    between atoms: C_12  and  S_13
REMARK    4  A    between atoms: S_13  and  C_14
REMARK    5  A    between atoms: C_17  and  C_18
REMARK    6  A    between atoms: C_18  and  N_19
REMARK    7  A    between atoms: N_19  and  S_20
REMARK                            x       y       z     vdW  Elec       q    Type
REMARK                         _______ _______ _______ _____ _____    ______ ____
ROOT
ATOM      1  C   UNL     1      -7.815  19.477  67.677  0.00  0.00    +0.126 C 
ATOM      2  C   UNL     1      -8.021  17.859  67.311  0.00  0.00    +0.096 C 
ATOM      3  N   UNL     1      -9.298  18.346  66.590  0.00  0.00    -0.254 N 
ATOM      4  C   UNL     1      -9.929  17.061  66.634  0.00  0.00    +0.136 C 
ATOM      5  C   UNL     1     -10.009  16.603  67.852  0.00  0.00    +0.024 C 
ATOM      6  C   UNL     1      -8.872  17.346  68.692  0.00  0.00    +0.049 C 
ATOM      7  C   UNL     1      -9.795  18.654  68.932  0.00  0.00    +0.007 C 
ATOM      8  C   UNL     1      -9.052  19.708  66.729  0.00  0.00    +0.233 C 
ATOM      9  O   UNL     1      -9.711  20.653  66.344  0.00  0.00    -0.274 OA
ENDROOT
BRANCH   4  10
ATOM     10  C   UNL     1     -10.536  16.454  65.465  0.00  0.00    +0.401 C 
ATOM     11  O   UNL     1      -9.963  15.276  64.965  0.00  0.00    -0.239 OA
ATOM     12  O   UNL     1     -11.238  17.060  64.609  0.00  0.00    -0.239 OA
ENDBRANCH   4  10
BRANCH   1  14
ATOM     13  C   UNL     1      -6.326  21.153  66.887  0.00  0.00    +0.036 C 
ATOM     14  C   UNL     1      -6.833  19.705  66.301  0.00  0.00    +0.162 C 
ATOM     15  O   UNL     1      -5.658  18.976  66.895  0.00  0.00    -0.223 OA
ENDBRANCH   1  14
BRANCH   5  16
ATOM     16  S   UNL     1     -11.562  16.066  68.608  0.00  0.00    -0.116 S 
BRANCH  16  17
ATOM     17  C   UNL     1     -11.439  14.167  68.612  0.00  0.00    +0.070 C 
ATOM     18  C   UNL     1     -11.875  13.734  67.141  0.00  0.00    +0.031 C 
ATOM     19  C   UNL     1     -11.362  12.250  67.648  0.00  0.00    +0.093 C 
ATOM     20  N   UNL     1      -9.868  12.707  67.766  0.00  0.00    -0.217 NA
ATOM     21  C   UNL     1      -9.940  14.082  68.081  0.00  0.00    +0.100 C 
BRANCH  19  22
ATOM     22  C   UNL     1     -11.122  11.665  66.140  0.00  0.00    +0.134 C 
BRANCH  22  23
ATOM     23  N   UNL     1     -12.307  12.086  65.490  0.00  0.00    -0.063 NA
BRANCH  23  24
ATOM     24  S   UNL     1     -12.265  12.438  63.851  0.00  0.00    +0.146 S 
ATOM     25  O   UNL     1     -12.486  13.866  63.474  0.00  0.00    -0.137 OA
ATOM     26  O   UNL     1     -13.154  11.621  62.977  0.00  0.00    -0.137 OA
ATOM     27  N   UNL     1     -10.630  12.072  63.360  0.00  0.00    +0.053 NA
ENDBRANCH  23  24
ENDBRANCH  22  23
ENDBRANCH  19  22
ENDBRANCH  16  17
ENDBRANCH   5  16
TORSDOF 7
ENDMDL
MODEL 9
REMARK VINA RESULT:      -6.8      4.044      7.859
REMARK  Name = 
REMARK  7 active torsions:
REMARK  status: ('A' for Active; 'I' for Inactive)
REMARK    1  A    between atoms: C_2  and  C_4
REMARK    2  A    between atoms: C_8  and  C_9
REMARK    3  A    between atoms: C_12  and  S_13
REMARK    4  A    between atoms: S_13  and  C_14
REMARK    5  A    between atoms: C_17  and  C_18
REMARK    6  A    between atoms: C_18  and  N_19
REMARK    7  A    between atoms: N_19  and  S_20
REMARK                            x       y       z     vdW  Elec       q    Type
REMARK                         _______ _______ _______ _____ _____    ______ ____
ROOT
ATOM      1  C   UNL     1      -5.201  19.776  65.318  0.00  0.00    +0.126 C 
ATOM      2  C   UNL     1      -6.537  18.800  65.084  0.00  0.00    +0.096 C 
ATOM      3  N   UNL     1      -7.217  19.755  66.090  0.00  0.00    -0.254 N 
ATOM      4  C   UNL     1      -8.230  18.810  66.451  0.00  0.00    +0.136 C 
ATOM      5  C   UNL     1      -7.717  17.688  66.871  0.00  0.00    +0.024 C 
ATOM      6  C   UNL     1      -6.243  17.605  66.259  0.00  0.00    +0.049 C 
ATOM      7  C   UNL     1      -5.621  18.536  67.429  0.00  0.00    +0.007 C 
ATOM      8  C   UNL     1      -6.179  20.680  66.161  0.00  0.00    +0.233 C 
ATOM      9  O   UNL     1      -6.107  21.709  66.801  0.00  0.00    -0.274 OA
ENDROOT
BRANCH   4  10
ATOM     10  C   UNL     1      -9.638  19.157  66.485  0.00  0.00    +0.401 C 
ATOM     11  O   UNL     1     -10.508  18.451  65.642  0.00  0.00    -0.239 OA
ATOM     12  O   UNL     1     -10.108  20.267  66.857  0.00  0.00    -0.239 OA
ENDBRANCH   4  10
BRANCH   1  14
ATOM     13  C   UNL     1      -4.097  21.357  63.927  0.00  0.00    +0.036 C 
ATOM     14  C   UNL     1      -5.618  20.739  63.972  0.00  0.00    +0.162 C 
ATOM     15  O   UNL     1      -5.284  19.663  62.974  0.00  0.00    -0.223 OA
ENDBRANCH   1  14
BRANCH   5  16
ATOM     16  S   UNL     1      -8.134  16.943  68.466  0.00  0.00    -0.116 S 
BRANCH  16  17
ATOM     17  C   UNL     1      -9.808  16.093  68.153  0.00  0.00    +0.070 C 
ATOM     18  C   UNL     1      -9.872  14.923  69.233  0.00  0.00    +0.031 C 
ATOM     19  C   UNL     1     -11.425  14.789  68.693  0.00  0.00    +0.093 C 
ATOM     20  N   UNL     1     -11.835  16.197  69.247  0.00  0.00    -0.217 NA
ATOM     21  C   UNL     1     -10.648  16.959  69.193  0.00  0.00    +0.100 C 
BRANCH  19  22
ATOM     22  C   UNL     1     -11.975  14.039  70.037  0.00  0.00    +0.134 C 
BRANCH  22  23
ATOM     23  N   UNL     1     -12.961  14.955  70.478  0.00  0.00    -0.063 NA
BRANCH  23  24
ATOM     24  S   UNL     1     -13.301  15.070  72.117  0.00  0.00    +0.146 S 
ATOM     25  O   UNL     1     -14.355  16.053  72.507  0.00  0.00    -0.137 OA
ATOM     26  O   UNL     1     -12.137  15.310  73.017  0.00  0.00    -0.137 OA
ATOM     27  N   UNL     1     -13.938  13.504  72.550  0.00  0.00    +0.053 NA
ENDBRANCH  23  24
ENDBRANCH  22  23
ENDBRANCH  19  22
ENDBRANCH  16  17
ENDBRANCH   5  16
TORSDOF 7
ENDMDL
