MODEL 1
REMARK VINA RESULT:      -6.6      0.000      0.000
REMARK  Name = 
REMARK  5 active torsions:
REMARK  status: ('A' for Active; 'I' for Inactive)
REMARK    1  A    between atoms: C_6  and  O_7
REMARK    2  A    between atoms: O_7  and  C_8
REMARK    3  A    between atoms: C_8  and  C_10
REMARK    4  A    between atoms: C_10  and  C_11
REMARK    5  A    between atoms: C_10  and  C_13
REMARK                            x       y       z     vdW  Elec       q    Type
REMARK                         _______ _______ _______ _____ _____    ______ ____
ROOT
ATOM      1  O   UNL     1     -11.374  14.295  67.428  0.00  0.00    -0.452 OA
ENDROOT
BRANCH   1   9
ATOM      2  C   UNL     1     -11.198  12.112  66.209  0.00  0.00    +0.170 C 
ATOM      3  N   UNL     1     -11.062  12.496  65.993  0.00  0.00    +0.302 N 
ATOM      4  C   UNL     1     -11.270  13.746  65.058  0.00  0.00    +0.093 C 
ATOM      5  C   UNL     1     -10.957  12.876  63.661  0.00  0.00    +0.197 C 
ATOM      6  C   UNL     1     -12.410  12.146  64.078  0.00  0.00    +0.197 C 
ATOM      7  O   UNL     1     -12.410  13.502  63.156  0.00  0.00    -0.342 OA
ATOM      8  C   UNL     1      -9.918  14.409  65.504  0.00  0.00    +0.101 C 
ATOM      9  C   UNL     1     -11.262  15.186  66.183  0.00  0.00    +0.180 C 
ATOM     10  C   UNL     1     -12.506  14.448  65.385  0.00  0.00    +0.101 C 
ATOM     11  C   UNL     1     -12.566  12.838  65.661  0.00  0.00    +0.093 C 
ATOM     12  C   UNL     1     -10.525  11.481  65.225  0.00  0.00    +0.170 C 
ENDBRANCH   1   9
BRANCH   1  13
ATOM     13  C   UNL     1     -11.696  15.004  68.578  0.00  0.00    +0.323 C 
ATOM     14  O   UNL     1     -11.600  16.220  68.412  0.00  0.00    -0.250 OA
BRANCH  13  15
ATOM     15  C   UNL     1     -11.120  14.331  69.919  0.00  0.00    +0.154 C 
BRANCH  15  16
ATOM     16  C   UNL     1     -12.083  15.097  70.959  0.00  0.00    -0.009 A 
ATOM     17  C   UNL     1     -13.339  14.511  70.930  0.00  0.00    -0.004 A 
ATOM     18  C   UNL     1     -14.285  14.976  71.834  0.00  0.00    -0.000 A 
ATOM     19  C   UNL     1     -13.875  15.834  72.824  0.00  0.00    -0.000 A 
ATOM     20  C   UNL     1     -12.524  15.974  73.054  0.00  0.00    -0.000 A 
ATOM     21  C   UNL     1     -11.606  15.458  72.152  0.00  0.00    -0.004 A 
ENDBRANCH  15  16
BRANCH  15  22
ATOM     22  C   UNL     1     -12.051  12.983  69.867  0.00  0.00    +0.198 C 
ATOM     23  O   UNL     1     -11.291  11.877  69.672  0.00  0.00    -0.219 OA
ENDBRANCH  15  22
ENDBRANCH  13  15
ENDBRANCH   1  13
TORSDOF 5
ENDMDL
MODEL 2
REMARK VINA RESULT:      -6.6      0.811      1.932
REMARK  Name = 
REMARK  5 active torsions:
REMARK  status: ('A' for Active; 'I' for Inactive)
REMARK    1  A    between atoms: C_6  and  O_7
REMARK    2  A    between atoms: O_7  and  C_8
REMARK    3  A    between atoms: C_8  and  C_10
REMARK    4  A    between atoms: C_10  and  C_11
REMARK    5  A    between atoms: C_10  and  C_13
REMARK                            x       y       z     vdW  Elec       q    Type
REMARK                         _______ _______ _______ _____ _____    ______ ____
ROOT
ATOM      1  O   UNL     1     -11.405  13.676  67.634  0.00  0.00    -0.452 OA
ENDROOT
BRANCH   1   9
ATOM      2  C   UNL     1     -11.069  11.806  65.999  0.00  0.00    +0.170 C 
ATOM      3  N   UNL     1     -10.968  12.235  65.865  0.00  0.00    +0.302 N 
ATOM      4  C   UNL     1     -11.292  13.625  65.201  0.00  0.00    +0.093 C 
ATOM      5  C   UNL     1     -10.930  13.084  63.658  0.00  0.00    +0.197 C 
ATOM      6  C   UNL     1     -12.312  12.167  63.917  0.00  0.00    +0.197 C 
ATOM      7  O   UNL     1     -12.437  13.675  63.288  0.00  0.00    -0.342 OA
ATOM      8  C   UNL     1      -9.992  14.295  65.774  0.00  0.00    +0.101 C 
ATOM      9  C   UNL     1     -11.384  14.805  66.593  0.00  0.00    +0.180 C 
ATOM     10  C   UNL     1     -12.576  14.142  65.662  0.00  0.00    +0.101 C 
ATOM     11  C   UNL     1     -12.500  12.510  65.607  0.00  0.00    +0.093 C 
ATOM     12  C   UNL     1     -10.361  11.444  64.908  0.00  0.00    +0.170 C 
ENDBRANCH   1   9
BRANCH   1  13
ATOM     13  C   UNL     1     -11.324  14.137  68.941  0.00  0.00    +0.323 C 
ATOM     14  O   UNL     1     -11.492  13.234  69.759  0.00  0.00    -0.250 OA
BRANCH  13  15
ATOM     15  C   UNL     1     -12.045  15.558  69.156  0.00  0.00    +0.154 C 
BRANCH  15  16
ATOM     16  C   UNL     1     -12.497  15.324  70.685  0.00  0.00    -0.009 A 
ATOM     17  C   UNL     1     -11.748  16.149  71.510  0.00  0.00    -0.004 A 
ATOM     18  C   UNL     1     -12.062  16.159  72.863  0.00  0.00    -0.000 A 
ATOM     19  C   UNL     1     -13.205  15.518  73.272  0.00  0.00    -0.000 A 
ATOM     20  C   UNL     1     -14.126  15.143  72.318  0.00  0.00    -0.000 A 
ATOM     21  C   UNL     1     -13.793  15.188  70.973  0.00  0.00    -0.004 A 
ENDBRANCH  15  16
BRANCH  15  22
ATOM     22  C   UNL     1     -10.695  16.395  69.558  0.00  0.00    +0.198 C 
ATOM     23  O   UNL     1     -10.433  17.360  68.643  0.00  0.00    -0.219 OA
ENDBRANCH  15  22
ENDBRANCH  13  15
ENDBRANCH   1  13
TORSDOF 5
ENDMDL
MODEL 3
REMARK VINA RESULT:      -6.6      3.885      6.920
REMARK  Name = 
REMARK  5 active torsions:
REMARK  status: ('A' for Active; 'I' for Inactive)
REMARK    1  A    between atoms: C_6  and  O_7
REMARK    2  A    between atoms: O_7  and  C_8
REMARK    3  A    between atoms: C_8  and  C_10
REMARK    4  A    between atoms: C_10  and  C_11
REMARK    5  A    between atoms: C_10  and  C_13
REMARK                            x       y       z     vdW  Elec       q    Type
REMARK                         _______ _______ _______ _____ _____    ______ ____
ROOT
ATOM      1  O   UNL     1      -9.532  17.238  65.946  0.00  0.00    -0.452 OA
ENDROOT
BRANCH   1   9
ATOM      2  C   UNL     1      -7.371  17.444  67.200  0.00  0.00    +0.170 C 
ATOM      3  N   UNL     1      -7.730  17.698  67.338  0.00  0.00    +0.302 N 
ATOM      4  C   UNL     1      -8.621  18.996  67.365  0.00  0.00    +0.093 C 
ATOM      5  C   UNL     1      -7.677  19.739  68.532  0.00  0.00    +0.197 C 
ATOM      6  C   UNL     1      -6.565  19.758  67.273  0.00  0.00    +0.197 C 
ATOM      7  O   UNL     1      -7.630  20.992  67.443  0.00  0.00    -0.342 OA
ATOM      8  C   UNL     1      -9.798  18.273  68.113  0.00  0.00    +0.101 C 
ATOM      9  C   UNL     1     -10.152  18.538  66.478  0.00  0.00    +0.180 C 
ATOM     10  C   UNL     1      -8.880  19.485  66.015  0.00  0.00    +0.101 C 
ATOM     11  C   UNL     1      -7.439  18.731  66.182  0.00  0.00    +0.093 C 
ATOM     12  C   UNL     1      -6.852  17.769  68.402  0.00  0.00    +0.170 C 
ENDBRANCH   1   9
BRANCH   1  13
ATOM     13  C   UNL     1     -10.454  16.412  65.316  0.00  0.00    +0.323 C 
ATOM     14  O   UNL     1     -11.170  17.034  64.533  0.00  0.00    -0.250 OA
BRANCH  13  15
ATOM     15  C   UNL     1     -11.103  15.322  66.303  0.00  0.00    +0.154 C 
BRANCH  15  16
ATOM     16  C   UNL     1     -11.472  14.228  65.179  0.00  0.00    -0.009 A 
ATOM     17  C   UNL     1     -10.314  13.577  64.781  0.00  0.00    -0.004 A 
ATOM     18  C   UNL     1     -10.445  12.527  63.882  0.00  0.00    -0.000 A 
ATOM     19  C   UNL     1     -11.706  12.068  63.595  0.00  0.00    -0.000 A 
ATOM     20  C   UNL     1     -12.750  12.461  64.403  0.00  0.00    -0.000 A 
ATOM     21  C   UNL     1     -12.571  13.484  65.323  0.00  0.00    -0.004 A 
ENDBRANCH  15  16
BRANCH  15  22
ATOM     22  C   UNL     1      -9.698  14.589  66.724  0.00  0.00    +0.198 C 
ATOM     23  O   UNL     1      -9.518  14.621  68.067  0.00  0.00    -0.219 OA
ENDBRANCH  15  22
ENDBRANCH  13  15
ENDBRANCH   1  13
TORSDOF 5
ENDMDL
MODEL 4
REMARK VINA RESULT:      -6.3      3.467      5.013
REMARK  Name = 
REMARK  5 active torsions:
REMARK  status: ('A' for Active; 'I' for Inactive)
REMARK    1  A    between atoms: C_6  and  O_7
REMARK    2  A    between atoms: O_7  and  C_8
REMARK    3  A    between atoms: C_8  and  C_10
REMARK    4  A    between atoms: C_10  and  C_11
REMARK    5  A    between atoms: C_10  and  C_13
REMARK                            x       y       z     vdW  Elec       q    Type
REMARK                         _______ _______ _______ _____ _____    ______ ____
ROOT
ATOM      1  O   UNL     1     -10.259  16.918  68.626  0.00  0.00    -0.452 OA
ENDROOT
BRANCH   1   9
ATOM      2  C   UNL     1     -10.346  19.204  67.601  0.00  0.00    +0.170 C 
ATOM      3  N   UNL     1     -10.070  18.888  67.410  0.00  0.00    +0.302 N 
ATOM      4  C   UNL     1      -8.701  18.138  67.206  0.00  0.00    +0.093 C 
ATOM      5  C   UNL     1      -8.135  19.264  66.103  0.00  0.00    +0.197 C 
ATOM      6  C   UNL     1      -8.127  20.239  67.470  0.00  0.00    +0.197 C 
ATOM      7  O   UNL     1      -6.815  19.325  67.110  0.00  0.00    -0.342 OA
ATOM      8  C   UNL     1      -9.365  16.976  66.383  0.00  0.00    +0.101 C 
ATOM      9  C   UNL     1      -8.949  16.487  67.950  0.00  0.00    +0.180 C 
ATOM     10  C   UNL     1      -8.093  17.794  68.487  0.00  0.00    +0.101 C 
ATOM     11  C   UNL     1      -8.987  19.162  68.523  0.00  0.00    +0.093 C 
ATOM     12  C   UNL     1     -10.158  19.872  66.444  0.00  0.00    +0.170 C 
ENDBRANCH   1   9
BRANCH   1  13
ATOM     13  C   UNL     1     -11.191  15.892  68.713  0.00  0.00    +0.323 C 
ATOM     14  O   UNL     1     -12.333  16.320  68.874  0.00  0.00    -0.250 OA
BRANCH  13  15
ATOM     15  C   UNL     1     -10.674  14.641  69.580  0.00  0.00    +0.154 C 
BRANCH  15  16
ATOM     16  C   UNL     1     -11.752  14.764  70.772  0.00  0.00    -0.009 A 
ATOM     17  C   UNL     1     -12.424  13.558  70.902  0.00  0.00    -0.004 A 
ATOM     18  C   UNL     1     -13.331  13.439  71.947  0.00  0.00    -0.000 A 
ATOM     19  C   UNL     1     -13.365  14.429  72.897  0.00  0.00    -0.000 A 
ATOM     20  C   UNL     1     -12.331  15.338  72.937  0.00  0.00    -0.000 A 
ATOM     21  C   UNL     1     -11.417  15.399  71.896  0.00  0.00    -0.004 A 
ENDBRANCH  15  16
BRANCH  15  22
ATOM     22  C   UNL     1     -11.521  13.492  68.774  0.00  0.00    +0.198 C 
ATOM     23  O   UNL     1     -11.086  13.378  67.494  0.00  0.00    -0.219 OA
ENDBRANCH  15  22
ENDBRANCH  13  15
ENDBRANCH   1  13
TORSDOF 5
ENDMDL
MODEL 5
REMARK VINA RESULT:      -6.3      3.430      5.910
REMARK  Name = 
REMARK  5 active torsions:
REMARK  status: ('A' for Active; 'I' for Inactive)
REMARK    1  A    between atoms: C_6  and  O_7
REMARK    2  A    between atoms: O_7  and  C_8
REMARK    3  A    between atoms: C_8  and  C_10
REMARK    4  A    between atoms: C_10  and  C_11
REMARK    5  A    between atoms: C_10  and  C_13
REMARK                            x       y       z     vdW  Elec       q    Type
REMARK                         _______ _______ _______ _____ _____    ______ ____
ROOT
ATOM      1  O   UNL     1      -9.849  16.639  65.888  0.00  0.00    -0.452 OA
ENDROOT
BRANCH   1   9
ATOM      2  C   UNL     1      -7.872  16.700  67.427  0.00  0.00    +0.170 C 
ATOM      3  N   UNL     1      -8.230  16.977  67.518  0.00  0.00    +0.302 N 
ATOM      4  C   UNL     1      -9.032  18.329  67.441  0.00  0.00    +0.093 C 
ATOM      5  C   UNL     1      -8.211  19.005  68.735  0.00  0.00    +0.197 C 
ATOM      6  C   UNL     1      -6.939  18.958  67.640  0.00  0.00    +0.197 C 
ATOM      7  O   UNL     1      -7.937  20.257  67.679  0.00  0.00    -0.342 OA
ATOM      8  C   UNL     1     -10.344  17.679  68.012  0.00  0.00    +0.101 C 
ATOM      9  C   UNL     1     -10.453  17.974  66.347  0.00  0.00    +0.180 C 
ATOM     10  C   UNL     1      -9.073  18.839  66.075  0.00  0.00    +0.101 C 
ATOM     11  C   UNL     1      -7.719  17.994  66.426  0.00  0.00    +0.093 C 
ATOM     12  C   UNL     1      -7.502  16.986  68.693  0.00  0.00    +0.170 C 
ENDBRANCH   1   9
BRANCH   1  13
ATOM     13  C   UNL     1     -10.477  16.115  64.765  0.00  0.00    +0.323 C 
ATOM     14  O   UNL     1     -11.433  16.803  64.409  0.00  0.00    -0.250 OA
BRANCH  13  15
ATOM     15  C   UNL     1     -10.612  14.514  64.807  0.00  0.00    +0.154 C 
BRANCH  15  16
ATOM     16  C   UNL     1     -10.576  14.351  66.409  0.00  0.00    -0.009 A 
ATOM     17  C   UNL     1     -11.875  14.264  66.886  0.00  0.00    -0.004 A 
ATOM     18  C   UNL     1     -12.046  14.023  68.243  0.00  0.00    -0.000 A 
ATOM     19  C   UNL     1     -10.944  13.690  68.990  0.00  0.00    -0.000 A 
ATOM     20  C   UNL     1      -9.787  13.334  68.332  0.00  0.00    -0.000 A 
ATOM     21  C   UNL     1      -9.668  13.549  66.967  0.00  0.00    -0.004 A 
ENDBRANCH  15  16
BRANCH  15  22
ATOM     22  C   UNL     1     -12.248  14.462  64.719  0.00  0.00    +0.198 C 
ATOM     23  O   UNL     1     -12.653  13.905  63.551  0.00  0.00    -0.219 OA
ENDBRANCH  15  22
ENDBRANCH  13  15
ENDBRANCH   1  13
TORSDOF 5
ENDMDL
MODEL 6
REMARK VINA RESULT:      -6.3      3.282      5.003
REMARK  Name = 
REMARK  5 active torsions:
REMARK  status: ('A' for Active; 'I' for Inactive)
REMARK    1  A    between atoms: C_6  and  O_7
REMARK    2  A    between atoms: O_7  and  C_8
REMARK    3  A    between atoms: C_8  and  C_10
REMARK    4  A    between atoms: C_10  and  C_11
REMARK    5  A    between atoms: C_10  and  C_13
REMARK                            x       y       z     vdW  Elec       q    Type
REMARK                         _______ _______ _______ _____ _____    ______ ____
ROOT
ATOM      1  O   UNL     1     -10.790  15.653  67.436  0.00  0.00    -0.452 OA
ENDROOT
BRANCH   1   9
ATOM      2  C   UNL     1     -11.897  14.372  65.588  0.00  0.00    +0.170 C 
ATOM      3  N   UNL     1     -11.763  14.142  65.965  0.00  0.00    +0.302 N 
ATOM      4  C   UNL     1     -10.754  13.295  66.825  0.00  0.00    +0.093 C 
ATOM      5  C   UNL     1     -11.234  11.844  66.141  0.00  0.00    +0.197 C 
ATOM      6  C   UNL     1     -10.504  12.519  64.788  0.00  0.00    +0.197 C 
ATOM      7  O   UNL     1      -9.611  11.647  65.850  0.00  0.00    -0.342 OA
ATOM      8  C   UNL     1     -11.588  13.486  68.143  0.00  0.00    +0.101 C 
ATOM      9  C   UNL     1     -10.183  14.431  68.139  0.00  0.00    +0.180 C 
ATOM     10  C   UNL     1      -9.415  13.874  66.787  0.00  0.00    +0.101 C 
ATOM     11  C   UNL     1     -10.282  14.118  65.423  0.00  0.00    +0.093 C 
ATOM     12  C   UNL     1     -12.618  13.261  65.331  0.00  0.00    +0.170 C 
ENDBRANCH   1   9
BRANCH   1  13
ATOM     13  C   UNL     1     -10.658  16.825  68.169  0.00  0.00    +0.323 C 
ATOM     14  O   UNL     1     -11.244  16.761  69.249  0.00  0.00    -0.250 OA
BRANCH  13  15
ATOM     15  C   UNL     1     -10.779  18.151  67.269  0.00  0.00    +0.154 C 
BRANCH  15  16
ATOM     16  C   UNL     1      -9.393  18.833  67.728  0.00  0.00    -0.009 A 
ATOM     17  C   UNL     1      -8.422  17.850  67.848  0.00  0.00    -0.004 A 
ATOM     18  C   UNL     1      -7.128  18.259  68.144  0.00  0.00    -0.000 A 
ATOM     19  C   UNL     1      -6.843  19.601  68.103  0.00  0.00    -0.000 A 
ATOM     20  C   UNL     1      -7.751  20.449  67.507  0.00  0.00    -0.000 A 
ATOM     21  C   UNL     1      -9.021  19.993  67.185  0.00  0.00    -0.004 A 
ENDBRANCH  15  16
BRANCH  15  22
ATOM     22  C   UNL     1     -10.147  17.508  65.901  0.00  0.00    +0.198 C 
ATOM     23  O   UNL     1     -10.975  17.705  64.845  0.00  0.00    -0.219 OA
ENDBRANCH  15  22
ENDBRANCH  13  15
ENDBRANCH   1  13
TORSDOF 5
ENDMDL
MODEL 7
REMARK VINA RESULT:      -6.2      3.556      4.938
REMARK  Name = 
REMARK  5 active torsions:
REMARK  status: ('A' for Active; 'I' for Inactive)
REMARK    1  A    between atoms: C_6  and  O_7
REMARK    2  A    between atoms: O_7  and  C_8
REMARK    3  A    between atoms: C_8  and  C_10
REMARK    4  A    between atoms: C_10  and  C_11
REMARK    5  A    between atoms: C_10  and  C_13
REMARK                            x       y       z     vdW  Elec       q    Type
REMARK                         _______ _______ _______ _____ _____    ______ ____
ROOT
ATOM      1  O   UNL     1     -10.395  16.042  66.737  0.00  0.00    -0.452 OA
ENDROOT
BRANCH   1   9
ATOM      2  C   UNL     1     -11.840  14.099  67.385  0.00  0.00    +0.170 C 
ATOM      3  N   UNL     1     -11.424  14.013  67.206  0.00  0.00    +0.302 N 
ATOM      4  C   UNL     1     -10.420  13.711  66.031  0.00  0.00    +0.093 C 
ATOM      5  C   UNL     1     -10.718  12.063  66.069  0.00  0.00    +0.197 C 
ATOM      6  C   UNL     1     -12.218  12.567  65.509  0.00  0.00    +0.197 C 
ATOM      7  O   UNL     1     -11.010  12.257  64.446  0.00  0.00    -0.342 OA
ATOM      8  C   UNL     1      -9.159  13.976  66.930  0.00  0.00    +0.101 C 
ATOM      9  C   UNL     1      -9.440  15.242  65.840  0.00  0.00    +0.180 C 
ATOM     10  C   UNL     1     -10.644  14.609  64.904  0.00  0.00    +0.101 C 
ATOM     11  C   UNL     1     -11.995  14.269  65.758  0.00  0.00    +0.093 C 
ATOM     12  C   UNL     1     -11.796  12.805  67.762  0.00  0.00    +0.170 C 
ENDBRANCH   1   9
BRANCH   1  13
ATOM     13  C   UNL     1     -10.043  17.381  66.849  0.00  0.00    +0.323 C 
ATOM     14  O   UNL     1      -9.219  17.713  65.999  0.00  0.00    -0.250 OA
BRANCH  13  15
ATOM     15  C   UNL     1      -9.862  17.862  68.373  0.00  0.00    +0.154 C 
BRANCH  15  16
ATOM     16  C   UNL     1      -8.252  17.917  68.375  0.00  0.00    -0.009 A 
ATOM     17  C   UNL     1      -7.842  19.172  68.799  0.00  0.00    -0.004 A 
ATOM     18  C   UNL     1      -6.479  19.382  68.959  0.00  0.00    -0.000 A 
ATOM     19  C   UNL     1      -5.639  18.298  68.885  0.00  0.00    -0.000 A 
ATOM     20  C   UNL     1      -6.188  17.036  68.940  0.00  0.00    -0.000 A 
ATOM     21  C   UNL     1      -7.560  16.867  68.821  0.00  0.00    -0.004 A 
ENDBRANCH  15  16
BRANCH  15  22
ATOM     22  C   UNL     1     -10.036  19.466  68.085  0.00  0.00    +0.198 C 
ATOM     23  O   UNL     1     -11.176  19.714  67.395  0.00  0.00    -0.219 OA
ENDBRANCH  15  22
ENDBRANCH  13  15
ENDBRANCH   1  13
TORSDOF 5
ENDMDL
MODEL 8
REMARK VINA RESULT:      -6.1      3.575      6.995
REMARK  Name = 
REMARK  5 active torsions:
REMARK  status: ('A' for Active; 'I' for Inactive)
REMARK    1  A    between atoms: C_6  and  O_7
REMARK    2  A    between atoms: O_7  and  C_8
REMARK    3  A    between atoms: C_8  and  C_10
REMARK    4  A    between atoms: C_10  and  C_11
REMARK    5  A    between atoms: C_10  and  C_13
REMARK                            x       y       z     vdW  Elec       q    Type
REMARK                         _______ _______ _______ _____ _____    ______ ____
ROOT
ATOM      1  O   UNL     1      -9.891  15.919  67.182  0.00  0.00    -0.452 OA
ENDROOT
BRANCH   1   9
ATOM      2  C   UNL     1     -10.658  18.304  67.247  0.00  0.00    +0.170 C 
ATOM      3  N   UNL     1     -10.212  18.219  67.169  0.00  0.00    +0.302 N 
ATOM      4  C   UNL     1      -8.712  18.009  67.600  0.00  0.00    +0.093 C 
ATOM      5  C   UNL     1      -8.377  19.650  67.592  0.00  0.00    +0.197 C 
ATOM      6  C   UNL     1      -9.424  19.625  68.904  0.00  0.00    +0.197 C 
ATOM      7  O   UNL     1      -7.822  19.365  69.131  0.00  0.00    -0.342 OA
ATOM      8  C   UNL     1      -8.300  17.445  66.193  0.00  0.00    +0.101 C 
ATOM      9  C   UNL     1      -8.397  16.225  67.364  0.00  0.00    +0.180 C 
ATOM     10  C   UNL     1      -8.615  17.108  68.742  0.00  0.00    +0.101 C 
ATOM     11  C   UNL     1      -9.987  17.995  68.714  0.00  0.00    +0.093 C 
ATOM     12  C   UNL     1     -10.361  19.542  66.800  0.00  0.00    +0.170 C 
ENDBRANCH   1   9
BRANCH   1  13
ATOM     13  C   UNL     1     -10.126  14.713  66.535  0.00  0.00    +0.323 C 
ATOM     14  O   UNL     1      -9.568  13.772  67.099  0.00  0.00    -0.250 OA
BRANCH  13  15
ATOM     15  C   UNL     1     -10.072  14.834  64.933  0.00  0.00    +0.154 C 
BRANCH  15  16
ATOM     16  C   UNL     1     -10.743  13.407  64.602  0.00  0.00    -0.009 A 
ATOM     17  C   UNL     1     -12.073  13.598  64.260  0.00  0.00    -0.004 A 
ATOM     18  C   UNL     1     -12.795  12.487  63.847  0.00  0.00    -0.000 A 
ATOM     19  C   UNL     1     -12.116  11.318  63.610  0.00  0.00    -0.000 A 
ATOM     20  C   UNL     1     -10.742  11.364  63.515  0.00  0.00    -0.000 A 
ATOM     21  C   UNL     1     -10.056  12.507  63.895  0.00  0.00    -0.004 A 
ENDBRANCH  15  16
BRANCH  15  22
ATOM     22  C   UNL     1     -11.474  15.666  64.761  0.00  0.00    +0.198 C 
ATOM     23  O   UNL     1     -11.254  16.869  64.176  0.00  0.00    -0.219 OA
ENDBRANCH  15  22
ENDBRANCH  13  15
ENDBRANCH   1  13
TORSDOF 5
ENDMDL
MODEL 9
REMARK VINA RESULT:      -6.1      3.659      5.159
REMARK  Name = 
REMARK  5 active torsions:
REMARK  status: ('A' for Active; 'I' for Inactive)
REMARK    1  A    between atoms: C_6  and  O_7
REMARK    2  A    between atoms: O_7  and  C_8
REMARK    3  A    between atoms: C_8  and  C_10
REMARK    4  A    between atoms: C_10  and  C_11
REMARK    5  A    between atoms: C_10  and  C_13
REMARK                            x       y       z     vdW  Elec       q    Type
REMARK                         _______ _______ _______ _____ _____    ______ ____
ROOT
ATOM      1  O   UNL     1     -10.506  16.116  66.529  0.00  0.00    -0.452 OA
ENDROOT
BRANCH   1   9
ATOM      2  C   UNL     1     -11.772  14.570  65.015  0.00  0.00    +0.170 C 
ATOM      3  N   UNL     1     -11.701  14.441  65.452  0.00  0.00    +0.302 N 
ATOM      4  C   UNL     1     -10.914  13.716  66.607  0.00  0.00    +0.093 C 
ATOM      5  C   UNL     1     -11.646  12.238  66.313  0.00  0.00    +0.197 C 
ATOM      6  C   UNL     1     -10.744  12.347  64.901  0.00  0.00    +0.197 C 
ATOM      7  O   UNL     1     -10.084  11.678  66.244  0.00  0.00    -0.342 OA
ATOM      8  C   UNL     1     -11.746  14.429  67.733  0.00  0.00    +0.101 C 
ATOM      9  C   UNL     1     -10.182  15.065  67.600  0.00  0.00    +0.180 C 
ATOM     10  C   UNL     1      -9.487  14.009  66.536  0.00  0.00    +0.101 C 
ATOM     11  C   UNL     1     -10.234  13.995  65.082  0.00  0.00    +0.093 C 
ATOM     12  C   UNL     1     -12.688  13.580  65.011  0.00  0.00    +0.170 C 
ENDBRANCH   1   9
BRANCH   1  13
ATOM     13  C   UNL     1      -9.841  17.319  66.728  0.00  0.00    +0.323 C 
ATOM     14  O   UNL     1      -8.883  17.447  65.966  0.00  0.00    -0.250 OA
BRANCH  13  15
ATOM     15  C   UNL     1      -9.689  17.709  68.280  0.00  0.00    +0.154 C 
BRANCH  15  16
ATOM     16  C   UNL     1      -8.098  17.964  68.267  0.00  0.00    -0.009 A 
ATOM     17  C   UNL     1      -7.850  19.295  68.569  0.00  0.00    -0.004 A 
ATOM     18  C   UNL     1      -6.524  19.686  68.700  0.00  0.00    -0.000 A 
ATOM     19  C   UNL     1      -5.556  18.713  68.723  0.00  0.00    -0.000 A 
ATOM     20  C   UNL     1      -5.944  17.403  68.900  0.00  0.00    -0.000 A 
ATOM     21  C   UNL     1      -7.283  17.055  68.805  0.00  0.00    -0.004 A 
ENDBRANCH  15  16
BRANCH  15  22
ATOM     22  C   UNL     1     -10.065  19.295  68.112  0.00  0.00    +0.198 C 
ATOM     23  O   UNL     1     -11.183  19.452  67.362  0.00  0.00    -0.219 OA
ENDBRANCH  15  22
ENDBRANCH  13  15
ENDBRANCH   1  13
TORSDOF 5
ENDMDL
