MODEL 1
REMARK VINA RESULT:      -6.2      0.000      0.000
REMARK  Name = 
REMARK  8 active torsions:
REMARK  status: ('A' for Active; 'I' for Inactive)
REMARK    1  A    between atoms: C_2  and  C_3
REMARK    2  A    between atoms: C_3  and  C_4
REMARK    3  A    between atoms: C_4  and  C_5
REMARK    4  A    between atoms: C_5  and  C_6
REMARK    5  A    between atoms: C_6  and  C_7
REMARK    6  A    between atoms: C_7  and  C_8
REMARK    7  A    between atoms: C_8  and  C_9
REMARK    8  A    between atoms: N_11  and  C_12
REMARK                            x       y       z     vdW  Elec       q    Type
REMARK                         _______ _______ _______ _____ _____    ______ ____
ROOT
ATOM      1  C   UNL     1      -9.645  16.845  68.749  0.00  0.00    +0.087 C 
ENDROOT
BRANCH   1   2
ATOM      2  C   UNL     1     -10.843  16.054  69.169  0.00  0.00    +0.246 C 
ATOM      3  N   UNL     1     -10.759  15.133  70.247  0.00  0.00    -0.179 NA
ATOM      4  O   UNL     1     -12.012  16.380  68.807  0.00  0.00    -0.273 OA
BRANCH   3   5
ATOM      5  C   UNL     1     -11.730  15.071  71.297  0.00  0.00    +0.073 A 
ATOM      6  C   UNL     1     -12.635  14.018  71.268  0.00  0.00    +0.017 A 
ATOM      7  C   UNL     1     -13.892  14.213  71.825  0.00  0.00    +0.001 A 
ATOM      8  C   UNL     1     -14.106  15.343  72.604  0.00  0.00    +0.000 A 
ATOM      9  C   UNL     1     -12.968  15.986  73.071  0.00  0.00    +0.001 A 
ATOM     10  C   UNL     1     -11.811  15.999  72.303  0.00  0.00    +0.017 A 
ENDBRANCH   3   5
ENDBRANCH   1   2
BRANCH   1  11
ATOM     11  C   UNL     1      -9.789  17.409  67.364  0.00  0.00    +0.010 C 
BRANCH  11  12
ATOM     12  C   UNL     1      -8.741  16.733  66.500  0.00  0.00    +0.001 C 
BRANCH  12  13
ATOM     13  C   UNL     1      -9.155  15.331  66.098  0.00  0.00    +0.000 C 
BRANCH  13  14
ATOM     14  C   UNL     1     -10.529  15.456  65.452  0.00  0.00    +0.007 C 
BRANCH  14  15
ATOM     15  C   UNL     1     -11.411  14.337  65.969  0.00  0.00    +0.051 C 
BRANCH  15  17
ATOM     16  O   UNL     1     -12.617  14.831  63.990  0.00  0.00    -0.540 OA
ATOM     17  C   UNL     1     -12.404  13.983  64.908  0.00  0.00    +0.087 C 
ATOM     18  N   UNL     1     -12.926  12.663  64.790  0.00  0.00    -0.203 NA
ATOM     19  O   UNL     1     -13.130  12.126  63.560  0.00  0.00    -0.403 OA
ENDBRANCH  15  17
ENDBRANCH  14  15
ENDBRANCH  13  14
ENDBRANCH  12  13
ENDBRANCH  11  12
ENDBRANCH   1  11
TORSDOF 8
ENDMDL
MODEL 2
REMARK VINA RESULT:      -5.7      1.604      2.281
REMARK  Name = 
REMARK  8 active torsions:
REMARK  status: ('A' for Active; 'I' for Inactive)
REMARK    1  A    between atoms: C_2  and  C_3
REMARK    2  A    between atoms: C_3  and  C_4
REMARK    3  A    between atoms: C_4  and  C_5
REMARK    4  A    between atoms: C_5  and  C_6
REMARK    5  A    between atoms: C_6  and  C_7
REMARK    6  A    between atoms: C_7  and  C_8
REMARK    7  A    between atoms: C_8  and  C_9
REMARK    8  A    between atoms: N_11  and  C_12
REMARK                            x       y       z     vdW  Elec       q    Type
REMARK                         _______ _______ _______ _____ _____    ______ ____
ROOT
ATOM      1  C   UNL     1     -10.600  15.926  67.369  0.00  0.00    +0.087 C 
ENDROOT
BRANCH   1   2
ATOM      2  C   UNL     1     -10.740  16.079  68.850  0.00  0.00    +0.246 C 
ATOM      3  N   UNL     1     -12.016  15.990  69.468  0.00  0.00    -0.179 NA
ATOM      4  O   UNL     1      -9.741  15.986  69.624  0.00  0.00    -0.273 OA
BRANCH   3   5
ATOM      5  C   UNL     1     -12.261  15.209  70.642  0.00  0.00    +0.073 A 
ATOM      6  C   UNL     1     -12.209  13.827  70.512  0.00  0.00    +0.017 A 
ATOM      7  C   UNL     1     -12.989  13.055  71.363  0.00  0.00    +0.001 A 
ATOM      8  C   UNL     1     -13.580  13.668  72.461  0.00  0.00    +0.000 A 
ATOM      9  C   UNL     1     -13.054  14.898  72.831  0.00  0.00    +0.001 A 
ATOM     10  C   UNL     1     -12.551  15.759  71.863  0.00  0.00    +0.017 A 
ENDBRANCH   3   5
ENDBRANCH   1   2
BRANCH   1  11
ATOM     11  C   UNL     1     -11.203  14.644  66.869  0.00  0.00    +0.010 C 
BRANCH  11  12
ATOM     12  C   UNL     1     -10.304  13.517  67.344  0.00  0.00    +0.001 C 
BRANCH  12  13
ATOM     13  C   UNL     1     -10.627  12.206  66.655  0.00  0.00    +0.000 C 
BRANCH  13  14
ATOM     14  C   UNL     1     -10.183  12.359  65.205  0.00  0.00    +0.007 C 
BRANCH  14  15
ATOM     15  C   UNL     1     -11.195  11.667  64.314  0.00  0.00    +0.051 C 
BRANCH  15  17
ATOM     16  O   UNL     1     -13.430  12.371  64.666  0.00  0.00    -0.540 OA
ATOM     17  C   UNL     1     -12.335  12.604  64.071  0.00  0.00    +0.087 C 
ATOM     18  N   UNL     1     -12.149  13.838  63.386  0.00  0.00    -0.203 NA
ATOM     19  O   UNL     1     -12.815  14.947  63.800  0.00  0.00    -0.403 OA
ENDBRANCH  15  17
ENDBRANCH  14  15
ENDBRANCH  13  14
ENDBRANCH  12  13
ENDBRANCH  11  12
ENDBRANCH   1  11
TORSDOF 8
ENDMDL
MODEL 3
REMARK VINA RESULT:      -5.7      2.743      4.690
REMARK  Name = 
REMARK  8 active torsions:
REMARK  status: ('A' for Active; 'I' for Inactive)
REMARK    1  A    between atoms: C_2  and  C_3
REMARK    2  A    between atoms: C_3  and  C_4
REMARK    3  A    between atoms: C_4  and  C_5
REMARK    4  A    between atoms: C_5  and  C_6
REMARK    5  A    between atoms: C_6  and  C_7
REMARK    6  A    between atoms: C_7  and  C_8
REMARK    7  A    between atoms: C_8  and  C_9
REMARK    8  A    between atoms: N_11  and  C_12
REMARK                            x       y       z     vdW  Elec       q    Type
REMARK                         _______ _______ _______ _____ _____    ______ ____
ROOT
ATOM      1  C   UNL     1     -11.908  14.122  68.141  0.00  0.00    +0.087 C 
ENDROOT
BRANCH   1   2
ATOM      2  C   UNL     1     -11.371  15.445  68.585  0.00  0.00    +0.246 C 
ATOM      3  N   UNL     1     -10.131  15.926  68.085  0.00  0.00    -0.179 NA
ATOM      4  O   UNL     1     -12.108  16.302  69.157  0.00  0.00    -0.273 OA
BRANCH   3   5
ATOM      5  C   UNL     1      -9.949  17.262  67.605  0.00  0.00    +0.073 A 
ATOM      6  C   UNL     1      -9.337  18.170  68.460  0.00  0.00    +0.017 A 
ATOM      7  C   UNL     1      -9.666  19.513  68.340  0.00  0.00    +0.001 A 
ATOM      8  C   UNL     1     -10.383  19.925  67.224  0.00  0.00    +0.000 A 
ATOM      9  C   UNL     1     -10.392  19.050  66.147  0.00  0.00    +0.001 A 
ATOM     10  C   UNL     1     -10.359  17.678  66.365  0.00  0.00    +0.017 A 
ENDBRANCH   3   5
ENDBRANCH   1   2
BRANCH   1  11
ATOM     11  C   UNL     1     -11.201  12.970  68.799  0.00  0.00    +0.010 C 
BRANCH  11  12
ATOM     12  C   UNL     1     -10.358  12.300  67.730  0.00  0.00    +0.001 C 
BRANCH  12  13
ATOM     13  C   UNL     1     -11.210  11.590  66.698  0.00  0.00    +0.000 C 
BRANCH  13  14
ATOM     14  C   UNL     1     -10.560  11.856  65.345  0.00  0.00    +0.007 C 
BRANCH  14  15
ATOM     15  C   UNL     1     -11.566  12.557  64.454  0.00  0.00    +0.051 C 
BRANCH  15  17
ATOM     16  O   UNL     1     -10.259  14.485  64.890  0.00  0.00    -0.540 OA
ATOM     17  C   UNL     1     -11.416  14.034  64.635  0.00  0.00    +0.087 C 
ATOM     18  N   UNL     1     -12.472  14.933  64.310  0.00  0.00    -0.203 NA
ATOM     19  O   UNL     1     -12.187  16.125  63.726  0.00  0.00    -0.403 OA
ENDBRANCH  15  17
ENDBRANCH  14  15
ENDBRANCH  13  14
ENDBRANCH  12  13
ENDBRANCH  11  12
ENDBRANCH   1  11
TORSDOF 8
ENDMDL
MODEL 4
REMARK VINA RESULT:      -5.7      2.095      3.004
REMARK  Name = 
REMARK  8 active torsions:
REMARK  status: ('A' for Active; 'I' for Inactive)
REMARK    1  A    between atoms: C_2  and  C_3
REMARK    2  A    between atoms: C_3  and  C_4
REMARK    3  A    between atoms: C_4  and  C_5
REMARK    4  A    between atoms: C_5  and  C_6
REMARK    5  A    between atoms: C_6  and  C_7
REMARK    6  A    between atoms: C_7  and  C_8
REMARK    7  A    between atoms: C_8  and  C_9
REMARK    8  A    between atoms: N_11  and  C_12
REMARK                            x       y       z     vdW  Elec       q    Type
REMARK                         _______ _______ _______ _____ _____    ______ ____
ROOT
ATOM      1  C   UNL     1     -10.254  13.621  68.229  0.00  0.00    +0.087 C 
ENDROOT
BRANCH   1   2
ATOM      2  C   UNL     1     -11.487  14.308  68.724  0.00  0.00    +0.246 C 
ATOM      3  N   UNL     1     -12.137  13.861  69.906  0.00  0.00    -0.179 NA
ATOM      4  O   UNL     1     -11.817  15.458  68.310  0.00  0.00    -0.273 OA
BRANCH   3   5
ATOM      5  C   UNL     1     -12.567  14.750  70.942  0.00  0.00    +0.073 A 
ATOM      6  C   UNL     1     -11.583  15.360  71.710  0.00  0.00    +0.017 A 
ATOM      7  C   UNL     1     -11.887  15.702  73.020  0.00  0.00    +0.001 A 
ATOM      8  C   UNL     1     -13.214  15.660  73.428  0.00  0.00    +0.000 A 
ATOM      9  C   UNL     1     -14.163  15.645  72.415  0.00  0.00    +0.001 A 
ATOM     10  C   UNL     1     -13.885  15.009  71.211  0.00  0.00    +0.017 A 
ENDBRANCH   3   5
ENDBRANCH   1   2
BRANCH   1  11
ATOM     11  C   UNL     1     -10.350  12.125  68.342  0.00  0.00    +0.010 C 
BRANCH  11  12
ATOM     12  C   UNL     1     -11.318  11.661  67.269  0.00  0.00    +0.001 C 
BRANCH  12  13
ATOM     13  C   UNL     1     -10.607  10.952  66.133  0.00  0.00    +0.000 C 
BRANCH  13  14
ATOM     14  C   UNL     1     -10.885  11.767  64.876  0.00  0.00    +0.007 C 
BRANCH  14  15
ATOM     15  C   UNL     1     -12.054  12.693  65.147  0.00  0.00    +0.051 C 
BRANCH  15  17
ATOM     16  O   UNL     1     -12.641  13.649  63.059  0.00  0.00    -0.540 OA
ATOM     17  C   UNL     1     -12.018  13.809  64.152  0.00  0.00    +0.087 C 
ATOM     18  N   UNL     1     -11.508  15.094  64.495  0.00  0.00    -0.203 NA
ATOM     19  O   UNL     1     -12.117  16.211  64.021  0.00  0.00    -0.403 OA
ENDBRANCH  15  17
ENDBRANCH  14  15
ENDBRANCH  13  14
ENDBRANCH  12  13
ENDBRANCH  11  12
ENDBRANCH   1  11
TORSDOF 8
ENDMDL
MODEL 5
REMARK VINA RESULT:      -5.6      4.200      6.697
REMARK  Name = 
REMARK  8 active torsions:
REMARK  status: ('A' for Active; 'I' for Inactive)
REMARK    1  A    between atoms: C_2  and  C_3
REMARK    2  A    between atoms: C_3  and  C_4
REMARK    3  A    between atoms: C_4  and  C_5
REMARK    4  A    between atoms: C_5  and  C_6
REMARK    5  A    between atoms: C_6  and  C_7
REMARK    6  A    between atoms: C_7  and  C_8
REMARK    7  A    between atoms: C_8  and  C_9
REMARK    8  A    between atoms: N_11  and  C_12
REMARK                            x       y       z     vdW  Elec       q    Type
REMARK                         _______ _______ _______ _____ _____    ______ ____
ROOT
ATOM      1  C   UNL     1      -9.744  17.506  68.859  0.00  0.00    +0.087 C 
ENDROOT
BRANCH   1   2
ATOM      2  C   UNL     1     -10.772  16.465  69.171  0.00  0.00    +0.246 C 
ATOM      3  N   UNL     1     -10.580  15.562  70.251  0.00  0.00    -0.179 NA
ATOM      4  O   UNL     1     -11.949  16.537  68.710  0.00  0.00    -0.273 OA
BRANCH   3   5
ATOM      5  C   UNL     1     -11.600  15.269  71.212  0.00  0.00    +0.073 A 
ATOM      6  C   UNL     1     -12.321  14.094  71.039  0.00  0.00    +0.017 A 
ATOM      7  C   UNL     1     -13.628  14.049  71.504  0.00  0.00    +0.001 A 
ATOM      8  C   UNL     1     -14.073  15.067  72.338  0.00  0.00    +0.000 A 
ATOM      9  C   UNL     1     -13.088  15.839  72.937  0.00  0.00    +0.001 A 
ATOM     10  C   UNL     1     -11.897  16.090  72.267  0.00  0.00    +0.017 A 
ENDBRANCH   3   5
ENDBRANCH   1   2
BRANCH   1  11
ATOM     11  C   UNL     1      -8.350  16.944  68.844  0.00  0.00    +0.010 C 
BRANCH  11  12
ATOM     12  C   UNL     1      -7.569  17.726  67.804  0.00  0.00    +0.001 C 
BRANCH  12  13
ATOM     13  C   UNL     1      -7.138  19.084  68.322  0.00  0.00    +0.000 C 
BRANCH  13  14
ATOM     14  C   UNL     1      -6.105  18.823  69.411  0.00  0.00    +0.007 C 
BRANCH  14  15
ATOM     15  C   UNL     1      -6.107  19.996  70.371  0.00  0.00    +0.051 C 
BRANCH  15  17
ATOM     16  O   UNL     1      -5.213  18.412  71.891  0.00  0.00    -0.540 OA
ATOM     17  C   UNL     1      -5.281  19.635  71.566  0.00  0.00    +0.087 C 
ATOM     18  N   UNL     1      -4.416  20.583  72.182  0.00  0.00    -0.203 NA
ATOM     19  O   UNL     1      -3.202  20.187  72.646  0.00  0.00    -0.403 OA
ENDBRANCH  15  17
ENDBRANCH  14  15
ENDBRANCH  13  14
ENDBRANCH  12  13
ENDBRANCH  11  12
ENDBRANCH   1  11
TORSDOF 8
ENDMDL
MODEL 6
REMARK VINA RESULT:      -5.6      3.578      7.823
REMARK  Name = 
REMARK  8 active torsions:
REMARK  status: ('A' for Active; 'I' for Inactive)
REMARK    1  A    between atoms: C_2  and  C_3
REMARK    2  A    between atoms: C_3  and  C_4
REMARK    3  A    between atoms: C_4  and  C_5
REMARK    4  A    between atoms: C_5  and  C_6
REMARK    5  A    between atoms: C_6  and  C_7
REMARK    6  A    between atoms: C_7  and  C_8
REMARK    7  A    between atoms: C_8  and  C_9
REMARK    8  A    between atoms: N_11  and  C_12
REMARK                            x       y       z     vdW  Elec       q    Type
REMARK                         _______ _______ _______ _____ _____    ______ ____
ROOT
ATOM      1  C   UNL     1     -10.695  10.732  69.493  0.00  0.00    +0.087 C 
ENDROOT
BRANCH   1   2
ATOM      2  C   UNL     1     -10.270  10.791  68.060  0.00  0.00    +0.246 C 
ATOM      3  N   UNL     1     -11.233  10.705  67.018  0.00  0.00    -0.179 NA
ATOM      4  O   UNL     1      -9.125  11.215  67.725  0.00  0.00    -0.273 OA
BRANCH   3   5
ATOM      5  C   UNL     1     -11.247  11.594  65.896  0.00  0.00    +0.073 A 
ATOM      6  C   UNL     1     -11.917  12.802  66.046  0.00  0.00    +0.017 A 
ATOM      7  C   UNL     1     -12.478  13.388  64.920  0.00  0.00    +0.001 A 
ATOM      8  C   UNL     1     -12.135  12.890  63.670  0.00  0.00    +0.000 A 
ATOM      9  C   UNL     1     -10.991  12.106  63.618  0.00  0.00    +0.001 A 
ATOM     10  C   UNL     1     -10.649  11.302  64.698  0.00  0.00    +0.017 A 
ENDBRANCH   3   5
ENDBRANCH   1   2
BRANCH   1  11
ATOM     11  C   UNL     1     -12.165  10.994  69.664  0.00  0.00    +0.010 C 
BRANCH  11  12
ATOM     12  C   UNL     1     -12.297  12.193  70.584  0.00  0.00    +0.001 C 
BRANCH  12  13
ATOM     13  C   UNL     1     -13.109  11.870  71.823  0.00  0.00    +0.000 C 
BRANCH  13  14
ATOM     14  C   UNL     1     -13.733  13.181  72.284  0.00  0.00    +0.007 C 
BRANCH  14  15
ATOM     15  C   UNL     1     -12.927  14.329  71.708  0.00  0.00    +0.051 C 
BRANCH  15  17
ATOM     16  O   UNL     1     -14.376  16.022  72.516  0.00  0.00    -0.540 OA
ATOM     17  C   UNL     1     -13.197  15.556  72.521  0.00  0.00    +0.087 C 
ATOM     18  N   UNL     1     -12.241  16.056  73.450  0.00  0.00    -0.203 NA
ATOM     19  O   UNL     1     -12.656  16.560  74.641  0.00  0.00    -0.403 OA
ENDBRANCH  15  17
ENDBRANCH  14  15
ENDBRANCH  13  14
ENDBRANCH  12  13
ENDBRANCH  11  12
ENDBRANCH   1  11
TORSDOF 8
ENDMDL
MODEL 7
REMARK VINA RESULT:      -5.6      2.589      3.529
REMARK  Name = 
REMARK  8 active torsions:
REMARK  status: ('A' for Active; 'I' for Inactive)
REMARK    1  A    between atoms: C_2  and  C_3
REMARK    2  A    between atoms: C_3  and  C_4
REMARK    3  A    between atoms: C_4  and  C_5
REMARK    4  A    between atoms: C_5  and  C_6
REMARK    5  A    between atoms: C_6  and  C_7
REMARK    6  A    between atoms: C_7  and  C_8
REMARK    7  A    between atoms: C_8  and  C_9
REMARK    8  A    between atoms: N_11  and  C_12
REMARK                            x       y       z     vdW  Elec       q    Type
REMARK                         _______ _______ _______ _____ _____    ______ ____
ROOT
ATOM      1  C   UNL     1      -9.889  15.005  68.170  0.00  0.00    +0.087 C 
ENDROOT
BRANCH   1   2
ATOM      2  C   UNL     1     -11.249  15.384  68.666  0.00  0.00    +0.246 C 
ATOM      3  N   UNL     1     -11.864  14.649  69.716  0.00  0.00    -0.179 NA
ATOM      4  O   UNL     1     -11.759  16.513  68.405  0.00  0.00    -0.273 OA
BRANCH   3   5
ATOM      5  C   UNL     1     -12.498  15.275  70.837  0.00  0.00    +0.073 A 
ATOM      6  C   UNL     1     -11.710  16.081  71.649  0.00  0.00    +0.017 A 
ATOM      7  C   UNL     1     -12.050  16.200  72.989  0.00  0.00    +0.001 A 
ATOM      8  C   UNL     1     -13.289  15.728  73.405  0.00  0.00    +0.000 A 
ATOM      9  C   UNL     1     -14.229  15.519  72.405  0.00  0.00    +0.001 A 
ATOM     10  C   UNL     1     -13.823  15.104  71.143  0.00  0.00    +0.017 A 
ENDBRANCH   3   5
ENDBRANCH   1   2
BRANCH   1  11
ATOM     11  C   UNL     1      -8.808  15.339  69.159  0.00  0.00    +0.010 C 
BRANCH  11  12
ATOM     12  C   UNL     1      -7.803  16.217  68.437  0.00  0.00    +0.001 C 
BRANCH  12  13
ATOM     13  C   UNL     1      -8.223  17.673  68.433  0.00  0.00    +0.000 C 
BRANCH  13  14
ATOM     14  C   UNL     1      -7.618  18.293  67.178  0.00  0.00    +0.007 C 
BRANCH  14  15
ATOM     15  C   UNL     1      -8.579  19.334  66.641  0.00  0.00    +0.051 C 
BRANCH  15  17
ATOM     16  O   UNL     1     -10.945  19.291  66.785  0.00  0.00    -0.540 OA
ATOM     17  C   UNL     1      -9.903  18.681  66.398  0.00  0.00    +0.087 C 
ATOM     18  N   UNL     1     -10.022  17.534  65.563  0.00  0.00    -0.203 NA
ATOM     19  O   UNL     1     -11.091  17.409  64.735  0.00  0.00    -0.403 OA
ENDBRANCH  15  17
ENDBRANCH  14  15
ENDBRANCH  13  14
ENDBRANCH  12  13
ENDBRANCH  11  12
ENDBRANCH   1  11
TORSDOF 8
ENDMDL
MODEL 8
REMARK VINA RESULT:      -5.6      2.789      6.981
REMARK  Name = 
REMARK  8 active torsions:
REMARK  status: ('A' for Active; 'I' for Inactive)
REMARK    1  A    between atoms: C_2  and  C_3
REMARK    2  A    between atoms: C_3  and  C_4
REMARK    3  A    between atoms: C_4  and  C_5
REMARK    4  A    between atoms: C_5  and  C_6
REMARK    5  A    between atoms: C_6  and  C_7
REMARK    6  A    between atoms: C_7  and  C_8
REMARK    7  A    between atoms: C_8  and  C_9
REMARK    8  A    between atoms: N_11  and  C_12
REMARK                            x       y       z     vdW  Elec       q    Type
REMARK                         _______ _______ _______ _____ _____    ______ ____
ROOT
ATOM      1  C   UNL     1      -9.316  15.556  67.898  0.00  0.00    +0.087 C 
ENDROOT
BRANCH   1   2
ATOM      2  C   UNL     1      -9.374  14.808  66.604  0.00  0.00    +0.246 C 
ATOM      3  N   UNL     1      -9.643  13.413  66.588  0.00  0.00    -0.179 NA
ATOM      4  O   UNL     1      -9.493  15.409  65.496  0.00  0.00    -0.273 OA
BRANCH   3   5
ATOM      5  C   UNL     1     -10.591  12.812  65.700  0.00  0.00    +0.073 A 
ATOM      6  C   UNL     1     -10.090  12.049  64.653  0.00  0.00    +0.017 A 
ATOM      7  C   UNL     1     -10.833  11.967  63.483  0.00  0.00    +0.001 A 
ATOM      8  C   UNL     1     -12.144  12.428  63.494  0.00  0.00    +0.000 A 
ATOM      9  C   UNL     1     -12.724  12.586  64.744  0.00  0.00    +0.001 A 
ATOM     10  C   UNL     1     -11.946  12.967  65.830  0.00  0.00    +0.017 A 
ENDBRANCH   3   5
ENDBRANCH   1   2
BRANCH   1  11
ATOM     11  C   UNL     1     -10.382  16.610  67.996  0.00  0.00    +0.010 C 
BRANCH  11  12
ATOM     12  C   UNL     1     -11.166  16.332  69.265  0.00  0.00    +0.001 C 
BRANCH  12  13
ATOM     13  C   UNL     1     -11.821  14.965  69.238  0.00  0.00    +0.000 C 
BRANCH  13  14
ATOM     14  C   UNL     1     -12.093  14.589  70.690  0.00  0.00    +0.007 C 
BRANCH  14  15
ATOM     15  C   UNL     1     -13.184  15.492  71.228  0.00  0.00    +0.051 C 
BRANCH  15  17
ATOM     16  O   UNL     1     -13.543  13.982  73.019  0.00  0.00    -0.540 OA
ATOM     17  C   UNL     1     -13.378  15.193  72.681  0.00  0.00    +0.087 C 
ATOM     18  N   UNL     1     -13.156  16.184  73.679  0.00  0.00    -0.203 NA
ATOM     19  O   UNL     1     -12.571  15.839  74.855  0.00  0.00    -0.403 OA
ENDBRANCH  15  17
ENDBRANCH  14  15
ENDBRANCH  13  14
ENDBRANCH  12  13
ENDBRANCH  11  12
ENDBRANCH   1  11
TORSDOF 8
ENDMDL
MODEL 9
REMARK VINA RESULT:      -5.6      2.501      6.404
REMARK  Name = 
REMARK  8 active torsions:
REMARK  status: ('A' for Active; 'I' for Inactive)
REMARK    1  A    between atoms: C_2  and  C_3
REMARK    2  A    between atoms: C_3  and  C_4
REMARK    3  A    between atoms: C_4  and  C_5
REMARK    4  A    between atoms: C_5  and  C_6
REMARK    5  A    between atoms: C_6  and  C_7
REMARK    6  A    between atoms: C_7  and  C_8
REMARK    7  A    between atoms: C_8  and  C_9
REMARK    8  A    between atoms: N_11  and  C_12
REMARK                            x       y       z     vdW  Elec       q    Type
REMARK                         _______ _______ _______ _____ _____    ______ ____
ROOT
ATOM      1  C   UNL     1     -10.489  14.500  65.311  0.00  0.00    +0.087 C 
ENDROOT
BRANCH   1   2
ATOM      2  C   UNL     1     -10.767  15.968  65.390  0.00  0.00    +0.246 C 
ATOM      3  N   UNL     1     -10.463  16.697  66.572  0.00  0.00    -0.179 NA
ATOM      4  O   UNL     1     -10.982  16.660  64.352  0.00  0.00    -0.273 OA
BRANCH   3   5
ATOM      5  C   UNL     1      -9.778  17.954  66.558  0.00  0.00    +0.073 A 
ATOM      6  C   UNL     1      -8.399  17.928  66.391  0.00  0.00    +0.017 A 
ATOM      7  C   UNL     1      -7.648  18.952  66.952  0.00  0.00    +0.001 A 
ATOM      8  C   UNL     1      -8.309  20.078  67.428  0.00  0.00    +0.000 A 
ATOM      9  C   UNL     1      -9.608  20.259  66.975  0.00  0.00    +0.001 A 
ATOM     10  C   UNL     1     -10.414  19.158  66.712  0.00  0.00    +0.017 A 
ENDBRANCH   3   5
ENDBRANCH   1   2
BRANCH   1  11
ATOM     11  C   UNL     1     -10.257  13.889  66.664  0.00  0.00    +0.010 C 
BRANCH  11  12
ATOM     12  C   UNL     1     -11.622  13.578  67.249  0.00  0.00    +0.001 C 
BRANCH  12  13
ATOM     13  C   UNL     1     -11.547  13.267  68.730  0.00  0.00    +0.000 C 
BRANCH  13  14
ATOM     14  C   UNL     1     -11.034  14.530  69.410  0.00  0.00    +0.007 C 
BRANCH  14  15
ATOM     15  C   UNL     1     -12.212  15.444  69.685  0.00  0.00    +0.051 C 
BRANCH  15  17
ATOM     16  O   UNL     1     -11.798  14.929  71.962  0.00  0.00    -0.540 OA
ATOM     17  C   UNL     1     -12.673  15.217  71.091  0.00  0.00    +0.087 C 
ATOM     18  N   UNL     1     -14.000  15.535  71.496  0.00  0.00    -0.203 NA
ATOM     19  O   UNL     1     -14.220  16.079  72.721  0.00  0.00    -0.403 OA
ENDBRANCH  15  17
ENDBRANCH  14  15
ENDBRANCH  13  14
ENDBRANCH  12  13
ENDBRANCH  11  12
ENDBRANCH   1  11
TORSDOF 8
ENDMDL
