MODEL 1
REMARK VINA RESULT:      -7.2      0.000      0.000
REMARK  Name = 
REMARK  4 active torsions:
REMARK  status: ('A' for Active; 'I' for Inactive)
REMARK    1  A    between atoms: O_2  and  C_3
REMARK    2  A    between atoms: C_5  and  C_6
REMARK    3  A    between atoms: C_25  and  O_26
REMARK    4  A    between atoms: C_28  and  O_29
REMARK                            x       y       z     vdW  Elec       q    Type
REMARK                         _______ _______ _______ _____ _____    ______ ____
ROOT
ATOM      1  C   UNL     1     -10.774  15.464  67.187  0.00  0.00    +0.055 C 
ATOM      2  C   UNL     1      -9.806  14.138  66.595  0.00  0.00    +0.113 C 
ATOM      3  C   UNL     1     -11.017  12.922  66.597  0.00  0.00    +0.090 C 
ATOM      4  C   UNL     1     -11.984  14.014  67.118  0.00  0.00    +0.212 C 
ATOM      5  O   UNL     1     -10.817  13.900  67.687  0.00  0.00    -0.448 OA
ATOM      6  C   UNL     1     -11.134  12.346  68.246  0.00  0.00    +0.178 C 
ATOM      7  O   UNL     1      -9.653  12.007  68.324  0.00  0.00    -0.218 OA
ATOM      8  C   UNL     1     -11.285  13.703  69.129  0.00  0.00    +0.007 A 
ATOM      9  C   UNL     1     -12.328  13.608  70.037  0.00  0.00    +0.038 A 
ATOM     10  C   UNL     1     -12.367  14.617  70.939  0.00  0.00    +0.176 A 
ATOM     11  O   UNL     1     -13.071  14.824  72.093  0.00  0.00    -0.435 OA
ATOM     12  C   UNL     1     -12.446  15.867  72.840  0.00  0.00    +0.429 C 
ATOM     13  O   UNL     1     -11.668  16.565  71.896  0.00  0.00    -0.435 OA
ATOM     14  C   UNL     1     -11.490  15.691  70.855  0.00  0.00    +0.176 A 
ATOM     15  C   UNL     1     -11.020  16.015  69.626  0.00  0.00    +0.036 A 
ATOM     16  C   UNL     1      -9.559  13.948  68.042  0.00  0.00    +0.317 C 
ATOM     17  O   UNL     1      -8.649  14.476  68.618  0.00  0.00    -0.250 OA
ATOM     18  C   UNL     1     -10.955  15.023  68.750  0.00  0.00    -0.016 A 
ENDROOT
BRANCH   1  23
ATOM     19  C   UNL     1      -9.618  18.850  67.188  0.00  0.00    +0.175 A 
ATOM     20  C   UNL     1      -8.360  18.800  66.605  0.00  0.00    +0.206 A 
ATOM     21  C   UNL     1      -7.780  17.571  66.318  0.00  0.00    +0.175 A 
ATOM     22  C   UNL     1      -8.550  16.425  66.418  0.00  0.00    +0.036 A 
ATOM     23  C   UNL     1      -9.516  16.413  67.417  0.00  0.00    -0.012 A 
ATOM     24  C   UNL     1     -10.094  17.663  67.658  0.00  0.00    +0.036 A 
BRANCH  19  26
ATOM     25  C   UNL     1     -10.948  20.008  65.716  0.00  0.00    +0.253 C 
ATOM     26  O   UNL     1     -10.442  19.957  66.938  0.00  0.00    -0.468 OA
ENDBRANCH  19  26
BRANCH  20  27
ATOM     27  O   UNL     1      -7.759  20.008  66.339  0.00  0.00    -0.465 OA
ATOM     28  C   UNL     1      -7.034  20.673  67.361  0.00  0.00    +0.253 C 
ENDBRANCH  20  27
BRANCH  21  29
ATOM     29  O   UNL     1      -6.664  17.626  65.485  0.00  0.00    -0.468 OA
ATOM     30  C   UNL     1      -5.412  17.476  66.129  0.00  0.00    +0.253 C 
ENDBRANCH  21  29
ENDBRANCH   1  23
TORSDOF 4
ENDMDL
MODEL 2
REMARK VINA RESULT:      -7.2      3.259      7.030
REMARK  Name = 
REMARK  4 active torsions:
REMARK  status: ('A' for Active; 'I' for Inactive)
REMARK    1  A    between atoms: O_2  and  C_3
REMARK    2  A    between atoms: C_5  and  C_6
REMARK    3  A    between atoms: C_25  and  O_26
REMARK    4  A    between atoms: C_28  and  O_29
REMARK                            x       y       z     vdW  Elec       q    Type
REMARK                         _______ _______ _______ _____ _____    ______ ____
ROOT
ATOM      1  C   UNL     1      -9.930  12.393  67.816  0.00  0.00    +0.055 C 
ATOM      2  C   UNL     1     -10.187  12.494  66.093  0.00  0.00    +0.113 C 
ATOM      3  C   UNL     1      -9.667  14.112  65.856  0.00  0.00    +0.090 C 
ATOM      4  C   UNL     1      -9.385  14.148  67.378  0.00  0.00    +0.212 C 
ATOM      5  O   UNL     1     -10.528  13.669  66.973  0.00  0.00    -0.448 OA
ATOM      6  C   UNL     1     -11.015  15.134  66.306  0.00  0.00    +0.178 C 
ATOM      7  O   UNL     1     -11.970  14.446  65.343  0.00  0.00    -0.218 OA
ATOM      8  C   UNL     1     -11.455  14.585  67.772  0.00  0.00    +0.007 A 
ATOM      9  C   UNL     1     -11.608  15.620  68.681  0.00  0.00    +0.038 A 
ATOM     10  C   UNL     1     -12.175  15.247  69.852  0.00  0.00    +0.176 A 
ATOM     11  O   UNL     1     -12.679  15.938  70.919  0.00  0.00    -0.435 OA
ATOM     12  C   UNL     1     -13.495  15.064  71.698  0.00  0.00    +0.429 C 
ATOM     13  O   UNL     1     -13.078  13.768  71.335  0.00  0.00    -0.435 OA
ATOM     14  C   UNL     1     -12.458  13.913  70.121  0.00  0.00    +0.176 A 
ATOM     15  C   UNL     1     -11.687  12.979  69.514  0.00  0.00    +0.036 A 
ATOM     16  C   UNL     1     -11.526  12.948  66.532  0.00  0.00    +0.317 C 
ATOM     17  O   UNL     1     -12.438  12.191  66.717  0.00  0.00    -0.250 OA
ATOM     18  C   UNL     1     -11.153  13.333  68.354  0.00  0.00    -0.016 A 
ENDROOT
BRANCH   1  23
ATOM     19  C   UNL     1     -10.305   9.428  69.784  0.00  0.00    +0.175 A 
ATOM     20  C   UNL     1     -10.436   8.399  68.862  0.00  0.00    +0.206 A 
ATOM     21  C   UNL     1     -10.553   8.695  67.511  0.00  0.00    +0.175 A 
ATOM     22  C   UNL     1     -10.323   9.990  67.083  0.00  0.00    +0.036 A 
ATOM     23  C   UNL     1     -10.701  11.006  67.953  0.00  0.00    -0.012 A 
ATOM     24  C   UNL     1     -10.543  10.680  69.303  0.00  0.00    +0.036 A 
BRANCH  19  26
ATOM     25  C   UNL     1      -8.291   9.186  70.861  0.00  0.00    +0.253 C 
ATOM     26  O   UNL     1      -9.609   9.189  70.978  0.00  0.00    -0.468 OA
ENDBRANCH  19  26
BRANCH  20  27
ATOM     27  O   UNL     1     -10.435   7.120  69.367  0.00  0.00    -0.465 OA
ATOM     28  C   UNL     1     -11.637   6.563  69.874  0.00  0.00    +0.253 C 
ENDBRANCH  20  27
BRANCH  21  29
ATOM     29  O   UNL     1     -10.391   7.607  66.653  0.00  0.00    -0.468 OA
ATOM     30  C   UNL     1      -9.086   7.430  66.132  0.00  0.00    +0.253 C 
ENDBRANCH  21  29
ENDBRANCH   1  23
TORSDOF 4
ENDMDL
MODEL 3
REMARK VINA RESULT:      -6.9      2.538      5.539
REMARK  Name = 
REMARK  4 active torsions:
REMARK  status: ('A' for Active; 'I' for Inactive)
REMARK    1  A    between atoms: O_2  and  C_3
REMARK    2  A    between atoms: C_5  and  C_6
REMARK    3  A    between atoms: C_25  and  O_26
REMARK    4  A    between atoms: C_28  and  O_29
REMARK                            x       y       z     vdW  Elec       q    Type
REMARK                         _______ _______ _______ _____ _____    ______ ____
ROOT
ATOM      1  C   UNL     1     -11.365  12.647  67.633  0.00  0.00    +0.055 C 
ATOM      2  C   UNL     1     -10.083  13.215  66.594  0.00  0.00    +0.113 C 
ATOM      3  C   UNL     1     -10.180  11.997  65.388  0.00  0.00    +0.090 C 
ATOM      4  C   UNL     1     -11.342  11.396  66.217  0.00  0.00    +0.212 C 
ATOM      5  O   UNL     1     -10.250  11.737  66.842  0.00  0.00    -0.448 OA
ATOM      6  C   UNL     1      -9.312  10.612  66.015  0.00  0.00    +0.178 C 
ATOM      7  O   UNL     1      -8.039  11.409  66.254  0.00  0.00    -0.218 OA
ATOM      8  C   UNL     1      -9.937  10.393  67.501  0.00  0.00    +0.007 A 
ATOM      9  C   UNL     1     -10.280   9.070  67.721  0.00  0.00    +0.038 A 
ATOM     10  C   UNL     1     -10.605   8.790  69.005  0.00  0.00    +0.176 A 
ATOM     11  O   UNL     1     -10.810   7.627  69.695  0.00  0.00    -0.435 OA
ATOM     12  C   UNL     1     -10.747   7.898  71.095  0.00  0.00    +0.429 C 
ATOM     13  O   UNL     1     -10.973   9.284  71.200  0.00  0.00    -0.435 OA
ATOM     14  C   UNL     1     -10.685   9.794  69.961  0.00  0.00    +0.176 A 
ATOM     15  C   UNL     1     -10.998  11.040  69.530  0.00  0.00    +0.036 A 
ATOM     16  C   UNL     1      -9.272  12.337  67.468  0.00  0.00    +0.317 C 
ATOM     17  O   UNL     1      -8.753  12.729  68.476  0.00  0.00    -0.250 OA
ATOM     18  C   UNL     1     -10.657  11.324  68.282  0.00  0.00    -0.016 A 
ENDROOT
BRANCH   1  23
ATOM     19  C   UNL     1     -12.520  14.195  70.645  0.00  0.00    +0.175 A 
ATOM     20  C   UNL     1     -12.056  15.501  70.579  0.00  0.00    +0.206 A 
ATOM     21  C   UNL     1     -11.190  15.874  69.560  0.00  0.00    +0.175 A 
ATOM     22  C   UNL     1     -10.973  15.001  68.508  0.00  0.00    +0.036 A 
ATOM     23  C   UNL     1     -10.987  13.646  68.814  0.00  0.00    -0.012 A 
ATOM     24  C   UNL     1     -11.891  13.306  69.826  0.00  0.00    +0.036 A 
BRANCH  19  26
ATOM     25  C   UNL     1     -13.758  13.113  72.249  0.00  0.00    +0.253 C 
ATOM     26  O   UNL     1     -13.775  13.946  71.221  0.00  0.00    -0.468 OA
ENDBRANCH  19  26
BRANCH  20  27
ATOM     27  O   UNL     1     -12.504  16.361  71.553  0.00  0.00    -0.465 OA
ATOM     28  C   UNL     1     -11.989  16.261  72.871  0.00  0.00    +0.253 C 
ENDBRANCH  20  27
BRANCH  21  29
ATOM     29  O   UNL     1     -11.012  17.249  69.411  0.00  0.00    -0.468 OA
ATOM     30  C   UNL     1     -10.252  17.648  68.285  0.00  0.00    +0.253 C 
ENDBRANCH  21  29
ENDBRANCH   1  23
TORSDOF 4
ENDMDL
MODEL 4
REMARK VINA RESULT:      -6.9      2.258      6.214
REMARK  Name = 
REMARK  4 active torsions:
REMARK  status: ('A' for Active; 'I' for Inactive)
REMARK    1  A    between atoms: O_2  and  C_3
REMARK    2  A    between atoms: C_5  and  C_6
REMARK    3  A    between atoms: C_25  and  O_26
REMARK    4  A    between atoms: C_28  and  O_29
REMARK                            x       y       z     vdW  Elec       q    Type
REMARK                         _______ _______ _______ _____ _____    ______ ____
ROOT
ATOM      1  C   UNL     1      -9.616  13.631  68.397  0.00  0.00    +0.055 C 
ATOM      2  C   UNL     1      -9.340  14.534  66.929  0.00  0.00    +0.113 C 
ATOM      3  C   UNL     1      -8.677  15.954  67.629  0.00  0.00    +0.090 C 
ATOM      4  C   UNL     1      -8.861  15.256  68.999  0.00  0.00    +0.212 C 
ATOM      5  O   UNL     1      -9.857  15.238  68.158  0.00  0.00    -0.448 OA
ATOM      6  C   UNL     1     -10.034  16.911  68.184  0.00  0.00    +0.178 C 
ATOM      7  O   UNL     1     -10.697  16.922  66.816  0.00  0.00    -0.218 OA
ATOM      8  C   UNL     1     -10.924  15.865  69.056  0.00  0.00    +0.007 A 
ATOM      9  C   UNL     1     -11.279  16.397  70.285  0.00  0.00    +0.038 A 
ATOM     10  C   UNL     1     -12.191  15.662  70.963  0.00  0.00    +0.176 A 
ATOM     11  O   UNL     1     -12.948  15.891  72.078  0.00  0.00    -0.435 OA
ATOM     12  C   UNL     1     -14.011  14.939  72.125  0.00  0.00    +0.429 C 
ATOM     13  O   UNL     1     -13.582  13.886  71.293  0.00  0.00    -0.435 OA
ATOM     14  C   UNL     1     -12.621  14.431  70.483  0.00  0.00    +0.176 A 
ATOM     15  C   UNL     1     -11.762  13.733  69.702  0.00  0.00    +0.036 A 
ATOM     16  C   UNL     1     -10.719  14.997  67.205  0.00  0.00    +0.317 C 
ATOM     17  O   UNL     1     -11.689  14.430  66.784  0.00  0.00    -0.250 OA
ATOM     18  C   UNL     1     -10.885  14.454  69.017  0.00  0.00    -0.016 A 
ENDROOT
BRANCH   1  23
ATOM     19  C   UNL     1     -10.706  10.226  68.527  0.00  0.00    +0.175 A 
ATOM     20  C   UNL     1     -10.632   9.775  67.217  0.00  0.00    +0.206 A 
ATOM     21  C   UNL     1     -10.345  10.670  66.194  0.00  0.00    +0.175 A 
ATOM     22  C   UNL     1      -9.927  11.949  66.518  0.00  0.00    +0.036 A 
ATOM     23  C   UNL     1     -10.475  12.508  67.666  0.00  0.00    -0.012 A 
ATOM     24  C   UNL     1     -10.725  11.579  68.681  0.00  0.00    +0.036 A 
BRANCH  19  26
ATOM     25  C   UNL     1      -9.196   9.524  70.109  0.00  0.00    +0.253 C 
ATOM     26  O   UNL     1     -10.391   9.343  69.571  0.00  0.00    -0.468 OA
ENDBRANCH  19  26
BRANCH  20  27
ATOM     27  O   UNL     1     -10.849   8.432  67.017  0.00  0.00    -0.465 OA
ATOM     28  C   UNL     1      -9.744   7.548  66.918  0.00  0.00    +0.253 C 
ENDBRANCH  20  27
BRANCH  21  29
ATOM     29  O   UNL     1     -10.011  10.083  64.975  0.00  0.00    -0.468 OA
ATOM     30  C   UNL     1     -10.320  10.848  63.824  0.00  0.00    +0.253 C 
ENDBRANCH  21  29
ENDBRANCH   1  23
TORSDOF 4
ENDMDL
MODEL 5
REMARK VINA RESULT:      -6.7      2.956      6.896
REMARK  Name = 
REMARK  4 active torsions:
REMARK  status: ('A' for Active; 'I' for Inactive)
REMARK    1  A    between atoms: O_2  and  C_3
REMARK    2  A    between atoms: C_5  and  C_6
REMARK    3  A    between atoms: C_25  and  O_26
REMARK    4  A    between atoms: C_28  and  O_29
REMARK                            x       y       z     vdW  Elec       q    Type
REMARK                         _______ _______ _______ _____ _____    ______ ____
ROOT
ATOM      1  C   UNL     1     -10.033  12.196  65.832  0.00  0.00    +0.055 C 
ATOM      2  C   UNL     1     -11.646  11.807  65.289  0.00  0.00    +0.113 C 
ATOM      3  C   UNL     1     -11.713  12.854  63.931  0.00  0.00    +0.090 C 
ATOM      4  C   UNL     1     -10.271  13.279  64.301  0.00  0.00    +0.212 C 
ATOM      5  O   UNL     1     -11.164  13.235  65.249  0.00  0.00    -0.448 OA
ATOM      6  C   UNL     1     -12.103  14.444  64.552  0.00  0.00    +0.178 C 
ATOM      7  O   UNL     1     -13.360  13.956  65.255  0.00  0.00    -0.218 OA
ATOM      8  C   UNL     1     -11.030  14.673  65.753  0.00  0.00    +0.007 A 
ATOM      9  C   UNL     1     -10.417  15.911  65.662  0.00  0.00    +0.038 A 
ATOM     10  C   UNL     1      -9.676  16.242  66.746  0.00  0.00    +0.176 A 
ATOM     11  O   UNL     1      -9.079  17.400  67.163  0.00  0.00    -0.435 OA
ATOM     12  C   UNL     1      -8.761  17.286  68.550  0.00  0.00    +0.429 C 
ATOM     13  O   UNL     1      -8.752  15.900  68.802  0.00  0.00    -0.435 OA
ATOM     14  C   UNL     1      -9.483  15.342  67.786  0.00  0.00    +0.176 A 
ATOM     15  C   UNL     1      -9.531  14.022  67.483  0.00  0.00    +0.036 A 
ATOM     16  C   UNL     1     -11.994  12.915  66.208  0.00  0.00    +0.317 C 
ATOM     17  O   UNL     1     -12.242  12.741  67.368  0.00  0.00    -0.250 OA
ATOM     18  C   UNL     1     -10.277  13.694  66.439  0.00  0.00    -0.016 A 
ENDROOT
BRANCH   1  23
ATOM     19  C   UNL     1      -8.300  10.693  68.577  0.00  0.00    +0.175 A 
ATOM     20  C   UNL     1      -9.002   9.528  68.852  0.00  0.00    +0.206 A 
ATOM     21  C   UNL     1     -10.203   9.277  68.200  0.00  0.00    +0.175 A 
ATOM     22  C   UNL     1     -10.571  10.081  67.135  0.00  0.00    +0.036 A 
ATOM     23  C   UNL     1     -10.199  11.418  67.211  0.00  0.00    -0.012 A 
ATOM     24  C   UNL     1      -8.973  11.627  67.850  0.00  0.00    +0.036 A 
BRANCH  19  26
ATOM     25  C   UNL     1      -6.426  11.645  69.504  0.00  0.00    +0.253 C 
ATOM     26  O   UNL     1      -6.904  10.695  68.716  0.00  0.00    -0.468 OA
ENDBRANCH  19  26
BRANCH  20  27
ATOM     27  O   UNL     1      -8.441   8.676  69.774  0.00  0.00    -0.465 OA
ATOM     28  C   UNL     1      -8.771   8.810  71.147  0.00  0.00    +0.253 C 
ENDBRANCH  20  27
BRANCH  21  29
ATOM     29  O   UNL     1     -10.679   7.973  68.323  0.00  0.00    -0.468 OA
ATOM     30  C   UNL     1     -10.641   7.194  67.141  0.00  0.00    +0.253 C 
ENDBRANCH  21  29
ENDBRANCH   1  23
TORSDOF 4
ENDMDL
MODEL 6
REMARK VINA RESULT:      -6.7      4.335      8.773
REMARK  Name = 
REMARK  4 active torsions:
REMARK  status: ('A' for Active; 'I' for Inactive)
REMARK    1  A    between atoms: O_2  and  C_3
REMARK    2  A    between atoms: C_5  and  C_6
REMARK    3  A    between atoms: C_25  and  O_26
REMARK    4  A    between atoms: C_28  and  O_29
REMARK                            x       y       z     vdW  Elec       q    Type
REMARK                         _______ _______ _______ _____ _____    ______ ____
ROOT
ATOM      1  C   UNL     1     -11.564  11.405  66.750  0.00  0.00    +0.055 C 
ATOM      2  C   UNL     1     -11.244  12.984  67.419  0.00  0.00    +0.113 C 
ATOM      3  C   UNL     1     -11.905  13.933  66.151  0.00  0.00    +0.090 C 
ATOM      4  C   UNL     1     -12.254  12.595  65.454  0.00  0.00    +0.212 C 
ATOM      5  O   UNL     1     -11.055  12.741  65.943  0.00  0.00    -0.448 OA
ATOM      6  C   UNL     1     -10.681  14.007  64.901  0.00  0.00    +0.178 C 
ATOM      7  O   UNL     1      -9.624  14.554  65.848  0.00  0.00    -0.218 OA
ATOM      8  C   UNL     1     -10.255  12.455  64.672  0.00  0.00    +0.007 A 
ATOM      9  C   UNL     1     -10.241  12.122  63.327  0.00  0.00    +0.038 A 
ATOM     10  C   UNL     1      -9.692  10.913  63.064  0.00  0.00    +0.176 A 
ATOM     11  O   UNL     1      -9.302  10.283  61.914  0.00  0.00    -0.435 OA
ATOM     12  C   UNL     1      -8.441   9.194  62.246  0.00  0.00    +0.429 C 
ATOM     13  O   UNL     1      -8.717   8.923  63.601  0.00  0.00    -0.435 OA
ATOM     14  C   UNL     1      -9.294  10.065  64.090  0.00  0.00    +0.176 A 
ATOM     15  C   UNL     1      -9.946  10.173  65.273  0.00  0.00    +0.036 A 
ATOM     16  C   UNL     1      -9.975  12.809  66.677  0.00  0.00    +0.317 C 
ATOM     17  O   UNL     1      -9.003  12.303  67.166  0.00  0.00    -0.250 OA
ATOM     18  C   UNL     1     -10.461  11.363  65.545  0.00  0.00    -0.016 A 
ENDROOT
BRANCH   1  23
ATOM     19  C   UNL     1     -10.568   8.212  68.023  0.00  0.00    +0.175 A 
ATOM     20  C   UNL     1     -10.538   8.369  69.401  0.00  0.00    +0.206 A 
ATOM     21  C   UNL     1     -10.714   9.629  69.956  0.00  0.00    +0.175 A 
ATOM     22  C   UNL     1     -11.129  10.670  69.144  0.00  0.00    +0.036 A 
ATOM     23  C   UNL     1     -10.671  10.653  67.832  0.00  0.00    -0.012 A 
ATOM     24  C   UNL     1     -10.532   9.367  67.300  0.00  0.00    +0.036 A 
BRANCH  19  26
ATOM     25  C   UNL     1     -10.099   6.375  66.726  0.00  0.00    +0.253 C 
ATOM     26  O   UNL     1     -10.993   6.989  67.484  0.00  0.00    -0.468 OA
ENDBRANCH  19  26
BRANCH  20  27
ATOM     27  O   UNL     1     -10.335   7.229  70.143  0.00  0.00    -0.465 OA
ATOM     28  C   UNL     1      -9.013   6.798  70.425  0.00  0.00    +0.253 C 
ENDBRANCH  20  27
BRANCH  21  29
ATOM     29  O   UNL     1     -10.953   9.640  71.330  0.00  0.00    -0.468 OA
ATOM     30  C   UNL     1     -12.316   9.661  71.712  0.00  0.00    +0.253 C 
ENDBRANCH  21  29
ENDBRANCH   1  23
TORSDOF 4
ENDMDL
MODEL 7
REMARK VINA RESULT:      -6.7      3.872      7.009
REMARK  Name = 
REMARK  4 active torsions:
REMARK  status: ('A' for Active; 'I' for Inactive)
REMARK    1  A    between atoms: O_2  and  C_3
REMARK    2  A    between atoms: C_5  and  C_6
REMARK    3  A    between atoms: C_25  and  O_26
REMARK    4  A    between atoms: C_28  and  O_29
REMARK                            x       y       z     vdW  Elec       q    Type
REMARK                         _______ _______ _______ _____ _____    ______ ____
ROOT
ATOM      1  C   UNL     1      -9.840  12.497  65.703  0.00  0.00    +0.055 C 
ATOM      2  C   UNL     1     -10.744  13.348  64.476  0.00  0.00    +0.113 C 
ATOM      3  C   UNL     1     -10.866  14.868  65.264  0.00  0.00    +0.090 C 
ATOM      4  C   UNL     1     -10.058  14.232  66.421  0.00  0.00    +0.212 C 
ATOM      5  O   UNL     1     -11.066  13.565  65.933  0.00  0.00    -0.448 OA
ATOM      6  C   UNL     1     -12.187  14.727  66.405  0.00  0.00    +0.178 C 
ATOM      7  O   UNL     1     -13.178  14.292  65.337  0.00  0.00    -0.218 OA
ATOM      8  C   UNL     1     -11.854  13.364  67.228  0.00  0.00    +0.007 A 
ATOM      9  C   UNL     1     -11.959  13.554  68.596  0.00  0.00    +0.038 A 
ATOM     10  C   UNL     1     -11.902  12.411  69.319  0.00  0.00    +0.176 A 
ATOM     11  O   UNL     1     -12.150  12.108  70.629  0.00  0.00    -0.435 OA
ATOM     12  C   UNL     1     -12.307  10.696  70.761  0.00  0.00    +0.429 C 
ATOM     13  O   UNL     1     -11.687  10.160  69.615  0.00  0.00    -0.435 OA
ATOM     14  C   UNL     1     -11.646  11.188  68.710  0.00  0.00    +0.176 A 
ATOM     15  C   UNL     1     -10.917  11.203  67.568  0.00  0.00    +0.036 A 
ATOM     16  C   UNL     1     -11.888  12.814  65.248  0.00  0.00    +0.317 C 
ATOM     17  O   UNL     1     -12.388  11.749  65.011  0.00  0.00    -0.250 OA
ATOM     18  C   UNL     1     -10.992  12.311  66.846  0.00  0.00    -0.016 A 
ENDROOT
BRANCH   1  23
ATOM     19  C   UNL     1      -8.596   9.152  65.455  0.00  0.00    +0.175 A 
ATOM     20  C   UNL     1      -8.689   8.832  64.108  0.00  0.00    +0.206 A 
ATOM     21  C   UNL     1      -9.328   9.703  63.235  0.00  0.00    +0.175 A 
ATOM     22  C   UNL     1      -9.671  10.968  63.679  0.00  0.00    +0.036 A 
ATOM     23  C   UNL     1     -10.045  11.077  65.013  0.00  0.00    -0.012 A 
ATOM     24  C   UNL     1      -9.360  10.203  65.863  0.00  0.00    +0.036 A 
BRANCH  19  26
ATOM     25  C   UNL     1      -6.559   9.551  66.438  0.00  0.00    +0.253 C 
ATOM     26  O   UNL     1      -7.510   8.664  66.198  0.00  0.00    -0.468 OA
ENDBRANCH  19  26
BRANCH  20  27
ATOM     27  O   UNL     1      -8.120   7.643  63.719  0.00  0.00    -0.465 OA
ATOM     28  C   UNL     1      -6.783   7.625  63.245  0.00  0.00    +0.253 C 
ENDBRANCH  20  27
BRANCH  21  29
ATOM     29  O   UNL     1      -9.120   9.440  61.882  0.00  0.00    -0.468 OA
ATOM     30  C   UNL     1      -8.258  10.340  61.210  0.00  0.00    +0.253 C 
ENDBRANCH  21  29
ENDBRANCH   1  23
TORSDOF 4
ENDMDL
MODEL 8
REMARK VINA RESULT:      -6.6      2.480      6.404
REMARK  Name = 
REMARK  4 active torsions:
REMARK  status: ('A' for Active; 'I' for Inactive)
REMARK    1  A    between atoms: O_2  and  C_3
REMARK    2  A    between atoms: C_5  and  C_6
REMARK    3  A    between atoms: C_25  and  O_26
REMARK    4  A    between atoms: C_28  and  O_29
REMARK                            x       y       z     vdW  Elec       q    Type
REMARK                         _______ _______ _______ _____ _____    ______ ____
ROOT
ATOM      1  C   UNL     1      -9.062  17.055  66.636  0.00  0.00    +0.055 C 
ATOM      2  C   UNL     1     -10.566  17.940  66.655  0.00  0.00    +0.113 C 
ATOM      3  C   UNL     1      -9.965  19.466  66.149  0.00  0.00    +0.090 C 
ATOM      4  C   UNL     1      -8.572  18.794  66.082  0.00  0.00    +0.212 C 
ATOM      5  O   UNL     1      -9.301  18.597  67.144  0.00  0.00    -0.448 OA
ATOM      6  C   UNL     1      -9.284  20.224  67.573  0.00  0.00    +0.178 C 
ATOM      7  O   UNL     1     -10.574  20.090  68.368  0.00  0.00    -0.218 OA
ATOM      8  C   UNL     1      -8.304  19.085  68.197  0.00  0.00    +0.007 A 
ATOM      9  C   UNL     1      -7.054  19.597  68.501  0.00  0.00    +0.038 A 
ATOM     10  C   UNL     1      -6.271  18.755  69.215  0.00  0.00    +0.176 A 
ATOM     11  O   UNL     1      -5.085  18.903  69.879  0.00  0.00    -0.435 OA
ATOM     12  C   UNL     1      -4.909  17.803  70.772  0.00  0.00    +0.429 C 
ATOM     13  O   UNL     1      -5.764  16.801  70.274  0.00  0.00    -0.435 OA
ATOM     14  C   UNL     1      -6.681  17.458  69.497  0.00  0.00    +0.176 A 
ATOM     15  C   UNL     1      -7.538  16.873  68.626  0.00  0.00    +0.036 A 
ATOM     16  C   UNL     1     -10.152  18.198  68.053  0.00  0.00    +0.317 C 
ATOM     17  O   UNL     1     -10.458  17.477  68.962  0.00  0.00    -0.250 OA
ATOM     18  C   UNL     1      -8.324  17.695  67.946  0.00  0.00    -0.016 A 
ENDROOT
BRANCH   1  23
ATOM     19  C   UNL     1      -8.605  13.589  67.400  0.00  0.00    +0.175 A 
ATOM     20  C   UNL     1      -9.866  13.025  67.279  0.00  0.00    +0.206 A 
ATOM     21  C   UNL     1     -10.970  13.842  67.074  0.00  0.00    +0.175 A 
ATOM     22  C   UNL     1     -10.772  15.179  66.780  0.00  0.00    +0.036 A 
ATOM     23  C   UNL     1      -9.679  15.791  67.382  0.00  0.00    -0.012 A 
ATOM     24  C   UNL     1      -8.579  14.943  67.547  0.00  0.00    +0.036 A 
BRANCH  19  26
ATOM     25  C   UNL     1      -6.371  13.125  67.665  0.00  0.00    +0.253 C 
ATOM     26  O   UNL     1      -7.483  12.843  67.007  0.00  0.00    -0.468 OA
ENDBRANCH  19  26
BRANCH  20  27
ATOM     27  O   UNL     1      -9.936  11.654  67.367  0.00  0.00    -0.465 OA
ATOM     28  C   UNL     1     -10.022  11.035  68.640  0.00  0.00    +0.253 C 
ENDBRANCH  20  27
BRANCH  21  29
ATOM     29  O   UNL     1     -12.131  13.176  66.681  0.00  0.00    -0.468 OA
ATOM     30  C   UNL     1     -12.447  13.260  65.304  0.00  0.00    +0.253 C 
ENDBRANCH  21  29
ENDBRANCH   1  23
TORSDOF 4
ENDMDL
MODEL 9
REMARK VINA RESULT:      -6.5      4.875      8.605
REMARK  Name = 
REMARK  4 active torsions:
REMARK  status: ('A' for Active; 'I' for Inactive)
REMARK    1  A    between atoms: O_2  and  C_3
REMARK    2  A    between atoms: C_5  and  C_6
REMARK    3  A    between atoms: C_25  and  O_26
REMARK    4  A    between atoms: C_28  and  O_29
REMARK                            x       y       z     vdW  Elec       q    Type
REMARK                         _______ _______ _______ _____ _____    ______ ____
ROOT
ATOM      1  C   UNL     1      -9.525  10.248  69.446  0.00  0.00    +0.055 C 
ATOM      2  C   UNL     1      -8.542   8.818  69.255  0.00  0.00    +0.113 C 
ATOM      3  C   UNL     1      -7.139   9.563  68.606  0.00  0.00    +0.090 C 
ATOM      4  C   UNL     1      -7.902  10.905  68.734  0.00  0.00    +0.212 C 
ATOM      5  O   UNL     1      -8.521   9.892  68.197  0.00  0.00    -0.448 OA
ATOM      6  C   UNL     1      -7.453   9.804  66.900  0.00  0.00    +0.178 C 
ATOM      7  O   UNL     1      -7.768   8.336  66.662  0.00  0.00    -0.218 OA
ATOM      8  C   UNL     1      -8.903  10.540  66.865  0.00  0.00    +0.007 A 
ATOM      9  C   UNL     1      -8.893  11.652  66.039  0.00  0.00    +0.038 A 
ATOM     10  C   UNL     1     -10.118  12.177  65.805  0.00  0.00    +0.176 A 
ATOM     11  O   UNL     1     -10.591  13.116  64.930  0.00  0.00    -0.435 OA
ATOM     12  C   UNL     1     -12.012  13.005  64.849  0.00  0.00    +0.429 C 
ATOM     13  O   UNL     1     -12.383  12.321  66.023  0.00  0.00    -0.435 OA
ATOM     14  C   UNL     1     -11.247  11.683  66.447  0.00  0.00    +0.176 A 
ATOM     15  C   UNL     1     -11.070  11.114  67.664  0.00  0.00    +0.036 A 
ATOM     16  C   UNL     1      -9.195   8.804  67.926  0.00  0.00    +0.317 C 
ATOM     17  O   UNL     1     -10.230   8.234  67.720  0.00  0.00    -0.250 OA
ATOM     18  C   UNL     1      -9.880  10.576  67.885  0.00  0.00    -0.016 A 
ENDROOT
BRANCH   1  23
ATOM     19  C   UNL     1     -12.684  10.294  71.125  0.00  0.00    +0.175 A 
ATOM     20  C   UNL     1     -12.821   9.025  71.668  0.00  0.00    +0.206 A 
ATOM     21  C   UNL     1     -11.897   8.037  71.355  0.00  0.00    +0.175 A 
ATOM     22  C   UNL     1     -10.740   8.388  70.682  0.00  0.00    +0.036 A 
ATOM     23  C   UNL     1     -10.849   9.420  69.758  0.00  0.00    -0.012 A 
ATOM     24  C   UNL     1     -11.770  10.408  70.122  0.00  0.00    +0.036 A 
BRANCH  19  26
ATOM     25  C   UNL     1     -12.862  12.576  71.323  0.00  0.00    +0.253 C 
ATOM     26  O   UNL     1     -13.174  11.398  71.840  0.00  0.00    -0.468 OA
ENDBRANCH  19  26
BRANCH  20  27
ATOM     27  O   UNL     1     -13.892   8.830  72.509  0.00  0.00    -0.465 OA
ATOM     28  C   UNL     1     -15.003   8.066  72.067  0.00  0.00    +0.253 C 
ENDBRANCH  20  27
BRANCH  21  29
ATOM     29  O   UNL     1     -11.952   6.901  72.161  0.00  0.00    -0.468 OA
ATOM     30  C   UNL     1     -10.884   6.751  73.078  0.00  0.00    +0.253 C 
ENDBRANCH  21  29
ENDBRANCH   1  23
TORSDOF 4
ENDMDL
