MODEL 1
REMARK VINA RESULT:      -4.8      0.000      0.000
REMARK  Name = 
REMARK  5 active torsions:
REMARK  status: ('A' for Active; 'I' for Inactive)
REMARK    1  A    between atoms: C_2  and  C_3
REMARK    2  A    between atoms: C_3  and  C_5
REMARK    3  A    between atoms: C_5  and  C_7
REMARK    4  A    between atoms: C_7  and  C_9
REMARK    5  A    between atoms: C_9  and  C_11
REMARK                            x       y       z     vdW  Elec       q    Type
REMARK                         _______ _______ _______ _____ _____    ______ ____
ROOT
ATOM      1  C   UNL     1     -11.463  14.254  64.656  0.00  0.00    +0.225 C 
ATOM      2  O   UNL     1     -12.635  14.846  63.909  0.00  0.00    -0.217 OA
ENDROOT
BRANCH   1   3
ATOM      3  C   UNL     1     -12.447  13.423  65.824  0.00  0.00    +0.258 C 
ATOM      4  F   UNL     1     -13.142  12.544  64.789  0.00  0.00    -0.226 F 
BRANCH   3   6
ATOM      5  O   UNL     1     -11.665  11.455  66.939  0.00  0.00    -0.285 OA
ATOM      6  C   UNL     1     -11.325  12.268  66.128  0.00  0.00    +0.245 C 
ENDBRANCH   3   6
ENDBRANCH   1   3
BRANCH   1   7
ATOM      7  C   UNL     1     -11.292  15.725  65.531  0.00  0.00    +0.218 C 
ATOM      8  O   UNL     1     -11.149  16.563  64.283  0.00  0.00    -0.217 OA
BRANCH   7   9
ATOM      9  C   UNL     1      -9.580  15.606  65.759  0.00  0.00    +0.218 C 
ATOM     10  O   UNL     1      -9.752  15.040  67.168  0.00  0.00    -0.217 OA
BRANCH   9  11
ATOM     11  C   UNL     1      -9.521  17.162  66.306  0.00  0.00    +0.217 C 
ATOM     12  O   UNL     1      -8.378  17.714  65.830  0.00  0.00    -0.217 OA
ENDBRANCH   9  11
ENDBRANCH   7   9
ENDBRANCH   1   7
TORSDOF 5
ENDMDL
MODEL 2
REMARK VINA RESULT:      -4.5      1.830      4.024
REMARK  Name = 
REMARK  5 active torsions:
REMARK  status: ('A' for Active; 'I' for Inactive)
REMARK    1  A    between atoms: C_2  and  C_3
REMARK    2  A    between atoms: C_3  and  C_5
REMARK    3  A    between atoms: C_5  and  C_7
REMARK    4  A    between atoms: C_7  and  C_9
REMARK    5  A    between atoms: C_9  and  C_11
REMARK                            x       y       z     vdW  Elec       q    Type
REMARK                         _______ _______ _______ _____ _____    ______ ____
ROOT
ATOM      1  C   UNL     1     -12.106  13.749  65.893  0.00  0.00    +0.225 C 
ATOM      2  O   UNL     1     -13.009  12.789  65.155  0.00  0.00    -0.217 OA
ENDROOT
BRANCH   1   3
ATOM      3  C   UNL     1     -11.287  14.299  64.462  0.00  0.00    +0.258 C 
ATOM      4  F   UNL     1     -12.563  14.749  63.760  0.00  0.00    -0.226 F 
BRANCH   3   6
ATOM      5  O   UNL     1     -11.262  16.684  64.273  0.00  0.00    -0.285 OA
ATOM      6  C   UNL     1     -11.016  15.805  65.048  0.00  0.00    +0.245 C 
ENDBRANCH   3   6
ENDBRANCH   1   3
BRANCH   1   7
ATOM      7  C   UNL     1     -11.043  12.449  66.261  0.00  0.00    +0.218 C 
ATOM      8  O   UNL     1     -12.046  11.751  67.147  0.00  0.00    -0.217 OA
BRANCH   7   9
ATOM      9  C   UNL     1     -10.261  13.222  67.599  0.00  0.00    +0.218 C 
ATOM     10  O   UNL     1      -9.027  13.548  66.758  0.00  0.00    -0.217 OA
BRANCH   9  11
ATOM     11  C   UNL     1      -9.638  11.779  68.099  0.00  0.00    +0.217 C 
ATOM     12  O   UNL     1      -8.338  11.991  68.421  0.00  0.00    -0.217 OA
ENDBRANCH   9  11
ENDBRANCH   7   9
ENDBRANCH   1   7
TORSDOF 5
ENDMDL
MODEL 3
REMARK VINA RESULT:      -4.4      2.089      3.687
REMARK  Name = 
REMARK  5 active torsions:
REMARK  status: ('A' for Active; 'I' for Inactive)
REMARK    1  A    between atoms: C_2  and  C_3
REMARK    2  A    between atoms: C_3  and  C_5
REMARK    3  A    between atoms: C_5  and  C_7
REMARK    4  A    between atoms: C_7  and  C_9
REMARK    5  A    between atoms: C_9  and  C_11
REMARK                            x       y       z     vdW  Elec       q    Type
REMARK                         _______ _______ _______ _____ _____    ______ ____
ROOT
ATOM      1  C   UNL     1     -12.341  13.972  66.107  0.00  0.00    +0.225 C 
ATOM      2  O   UNL     1     -12.254  12.475  65.929  0.00  0.00    -0.217 OA
ENDROOT
BRANCH   1   3
ATOM      3  C   UNL     1     -11.276  14.334  64.781  0.00  0.00    +0.258 C 
ATOM      4  F   UNL     1     -12.101  13.567  63.754  0.00  0.00    -0.226 F 
BRANCH   3   6
ATOM      5  O   UNL     1     -11.274  16.653  64.193  0.00  0.00    -0.285 OA
ATOM      6  C   UNL     1     -12.023  15.743  64.406  0.00  0.00    +0.245 C 
ENDBRANCH   3   6
ENDBRANCH   1   3
BRANCH   1   7
ATOM      7  C   UNL     1     -11.136  13.886  67.330  0.00  0.00    +0.218 C 
ATOM      8  O   UNL     1     -12.005  13.078  68.265  0.00  0.00    -0.217 OA
BRANCH   7   9
ATOM      9  C   UNL     1     -11.544  15.384  68.098  0.00  0.00    +0.218 C 
ATOM     10  O   UNL     1     -10.393  16.114  67.406  0.00  0.00    -0.217 OA
BRANCH   9  11
ATOM     11  C   UNL     1     -10.616  14.994  69.405  0.00  0.00    +0.217 C 
ATOM     12  O   UNL     1     -11.002  15.798  70.427  0.00  0.00    -0.217 OA
ENDBRANCH   9  11
ENDBRANCH   7   9
ENDBRANCH   1   7
TORSDOF 5
ENDMDL
MODEL 4
REMARK VINA RESULT:      -4.4      2.278      4.849
REMARK  Name = 
REMARK  5 active torsions:
REMARK  status: ('A' for Active; 'I' for Inactive)
REMARK    1  A    between atoms: C_2  and  C_3
REMARK    2  A    between atoms: C_3  and  C_5
REMARK    3  A    between atoms: C_5  and  C_7
REMARK    4  A    between atoms: C_7  and  C_9
REMARK    5  A    between atoms: C_9  and  C_11
REMARK                            x       y       z     vdW  Elec       q    Type
REMARK                         _______ _______ _______ _____ _____    ______ ____
ROOT
ATOM      1  C   UNL     1     -10.601  14.156  66.871  0.00  0.00    +0.225 C 
ATOM      2  O   UNL     1     -11.022  13.719  68.254  0.00  0.00    -0.217 OA
ENDROOT
BRANCH   1   3
ATOM      3  C   UNL     1     -10.935  15.840  67.149  0.00  0.00    +0.258 C 
ATOM      4  F   UNL     1      -9.797  16.022  68.147  0.00  0.00    -0.226 F 
BRANCH   3   6
ATOM      5  O   UNL     1     -10.541  17.131  65.173  0.00  0.00    -0.285 OA
ATOM      6  C   UNL     1      -9.998  16.356  65.907  0.00  0.00    +0.245 C 
ENDBRANCH   3   6
ENDBRANCH   1   3
BRANCH   1   7
ATOM      7  C   UNL     1     -12.155  13.727  66.274  0.00  0.00    +0.218 C 
ATOM      8  O   UNL     1     -11.989  12.265  66.612  0.00  0.00    -0.217 OA
BRANCH   7   9
ATOM      9  C   UNL     1     -11.665  13.497  64.629  0.00  0.00    +0.218 C 
ATOM     10  O   UNL     1     -12.535  14.658  64.150  0.00  0.00    -0.217 OA
BRANCH   9  11
ATOM     11  C   UNL     1     -12.870  12.394  64.399  0.00  0.00    +0.217 C 
ATOM     12  O   UNL     1     -12.857  12.051  63.087  0.00  0.00    -0.217 OA
ENDBRANCH   9  11
ENDBRANCH   7   9
ENDBRANCH   1   7
TORSDOF 5
ENDMDL
MODEL 5
REMARK VINA RESULT:      -4.4      2.890      5.297
REMARK  Name = 
REMARK  5 active torsions:
REMARK  status: ('A' for Active; 'I' for Inactive)
REMARK    1  A    between atoms: C_2  and  C_3
REMARK    2  A    between atoms: C_3  and  C_5
REMARK    3  A    between atoms: C_5  and  C_7
REMARK    4  A    between atoms: C_7  and  C_9
REMARK    5  A    between atoms: C_9  and  C_11
REMARK                            x       y       z     vdW  Elec       q    Type
REMARK                         _______ _______ _______ _____ _____    ______ ____
ROOT
ATOM      1  C   UNL     1      -9.576  16.804  67.014  0.00  0.00    +0.225 C 
ATOM      2  O   UNL     1      -9.566  16.217  68.406  0.00  0.00    -0.217 OA
ENDROOT
BRANCH   1   3
ATOM      3  C   UNL     1     -10.448  18.237  67.472  0.00  0.00    +0.258 C 
ATOM      4  F   UNL     1      -9.382  18.715  68.453  0.00  0.00    -0.226 F 
BRANCH   3   6
ATOM      5  O   UNL     1     -10.624  19.848  65.712  0.00  0.00    -0.285 OA
ATOM      6  C   UNL     1      -9.822  19.151  66.265  0.00  0.00    +0.245 C 
ENDBRANCH   3   6
ENDBRANCH   1   3
BRANCH   1   7
ATOM      7  C   UNL     1     -10.945  15.837  66.629  0.00  0.00    +0.218 C 
ATOM      8  O   UNL     1     -10.304  14.561  67.121  0.00  0.00    -0.217 OA
BRANCH   7   9
ATOM      9  C   UNL     1     -10.499  15.534  64.983  0.00  0.00    +0.218 C 
ATOM     10  O   UNL     1     -11.316  16.727  64.486  0.00  0.00    -0.217 OA
BRANCH   9  11
ATOM     11  C   UNL     1     -11.766  14.492  64.807  0.00  0.00    +0.217 C 
ATOM     12  O   UNL     1     -12.601  15.025  63.882  0.00  0.00    -0.217 OA
ENDBRANCH   9  11
ENDBRANCH   7   9
ENDBRANCH   1   7
TORSDOF 5
ENDMDL
MODEL 6
REMARK VINA RESULT:      -4.3      1.874      4.428
REMARK  Name = 
REMARK  5 active torsions:
REMARK  status: ('A' for Active; 'I' for Inactive)
REMARK    1  A    between atoms: C_2  and  C_3
REMARK    2  A    between atoms: C_3  and  C_5
REMARK    3  A    between atoms: C_5  and  C_7
REMARK    4  A    between atoms: C_7  and  C_9
REMARK    5  A    between atoms: C_9  and  C_11
REMARK                            x       y       z     vdW  Elec       q    Type
REMARK                         _______ _______ _______ _____ _____    ______ ____
ROOT
ATOM      1  C   UNL     1     -12.096  14.597  65.377  0.00  0.00    +0.225 C 
ATOM      2  O   UNL     1     -12.544  14.357  63.954  0.00  0.00    -0.217 OA
ENDROOT
BRANCH   1   3
ATOM      3  C   UNL     1     -10.655  15.461  64.926  0.00  0.00    +0.258 C 
ATOM      4  F   UNL     1     -11.407  16.594  64.238  0.00  0.00    -0.226 F 
BRANCH   3   6
ATOM      5  O   UNL     1      -9.969  17.331  66.252  0.00  0.00    -0.285 OA
ATOM      6  C   UNL     1     -10.572  16.299  66.331  0.00  0.00    +0.245 C 
ENDBRANCH   3   6
ENDBRANCH   1   3
BRANCH   1   7
ATOM      7  C   UNL     1     -11.400  13.026  65.410  0.00  0.00    +0.218 C 
ATOM      8  O   UNL     1     -12.721  12.329  65.188  0.00  0.00    -0.217 OA
BRANCH   7   9
ATOM      9  C   UNL     1     -11.478  12.825  67.128  0.00  0.00    +0.218 C 
ATOM     10  O   UNL     1      -9.998  13.170  67.291  0.00  0.00    -0.217 OA
BRANCH   9  11
ATOM     11  C   UNL     1     -11.168  11.212  66.978  0.00  0.00    +0.217 C 
ATOM     12  O   UNL     1     -11.832  10.579  67.977  0.00  0.00    -0.217 OA
ENDBRANCH   9  11
ENDBRANCH   7   9
ENDBRANCH   1   7
TORSDOF 5
ENDMDL
MODEL 7
REMARK VINA RESULT:      -4.3      2.658      4.185
REMARK  Name = 
REMARK  5 active torsions:
REMARK  status: ('A' for Active; 'I' for Inactive)
REMARK    1  A    between atoms: C_2  and  C_3
REMARK    2  A    between atoms: C_3  and  C_5
REMARK    3  A    between atoms: C_5  and  C_7
REMARK    4  A    between atoms: C_7  and  C_9
REMARK    5  A    between atoms: C_9  and  C_11
REMARK                            x       y       z     vdW  Elec       q    Type
REMARK                         _______ _______ _______ _____ _____    ______ ____
ROOT
ATOM      1  C   UNL     1     -11.256  15.033  67.188  0.00  0.00    +0.225 C 
ATOM      2  O   UNL     1     -10.022  15.877  66.975  0.00  0.00    -0.217 OA
ENDROOT
BRANCH   1   3
ATOM      3  C   UNL     1     -10.507  13.979  68.350  0.00  0.00    +0.258 C 
ATOM      4  F   UNL     1     -10.147  15.103  69.315  0.00  0.00    -0.226 F 
BRANCH   3   6
ATOM      5  O   UNL     1     -11.861  12.697  69.850  0.00  0.00    -0.285 OA
ATOM      6  C   UNL     1     -11.903  13.668  69.150  0.00  0.00    +0.245 C 
ENDBRANCH   3   6
ENDBRANCH   1   3
BRANCH   1   7
ATOM      7  C   UNL     1     -10.859  14.120  65.786  0.00  0.00    +0.218 C 
ATOM      8  O   UNL     1     -10.987  15.305  64.859  0.00  0.00    -0.217 OA
BRANCH   7   9
ATOM      9  C   UNL     1     -12.470  13.574  65.459  0.00  0.00    +0.218 C 
ATOM     10  O   UNL     1     -12.199  12.216  66.107  0.00  0.00    -0.217 OA
BRANCH   9  11
ATOM     11  C   UNL     1     -12.012  13.042  63.966  0.00  0.00    +0.217 C 
ATOM     12  O   UNL     1     -12.991  12.222  63.512  0.00  0.00    -0.217 OA
ENDBRANCH   9  11
ENDBRANCH   7   9
ENDBRANCH   1   7
TORSDOF 5
ENDMDL
MODEL 8
REMARK VINA RESULT:      -4.3      2.477      3.812
REMARK  Name = 
REMARK  5 active torsions:
REMARK  status: ('A' for Active; 'I' for Inactive)
REMARK    1  A    between atoms: C_2  and  C_3
REMARK    2  A    between atoms: C_3  and  C_5
REMARK    3  A    between atoms: C_5  and  C_7
REMARK    4  A    between atoms: C_7  and  C_9
REMARK    5  A    between atoms: C_9  and  C_11
REMARK                            x       y       z     vdW  Elec       q    Type
REMARK                         _______ _______ _______ _____ _____    ______ ____
ROOT
ATOM      1  C   UNL     1     -11.245  13.153  67.504  0.00  0.00    +0.225 C 
ATOM      2  O   UNL     1     -12.162  11.954  67.552  0.00  0.00    -0.217 OA
ENDROOT
BRANCH   1   3
ATOM      3  C   UNL     1     -11.936  13.915  68.905  0.00  0.00    +0.258 C 
ATOM      4  F   UNL     1     -11.578  12.773  69.850  0.00  0.00    -0.226 F 
BRANCH   3   6
ATOM      5  O   UNL     1     -10.756  15.840  69.698  0.00  0.00    -0.285 OA
ATOM      6  C   UNL     1     -10.567  14.731  69.288  0.00  0.00    +0.245 C 
ENDBRANCH   3   6
ENDBRANCH   1   3
BRANCH   1   7
ATOM      7  C   UNL     1     -12.276  13.880  66.336  0.00  0.00    +0.218 C 
ATOM      8  O   UNL     1     -12.414  12.613  65.526  0.00  0.00    -0.217 OA
BRANCH   7   9
ATOM      9  C   UNL     1     -11.008  14.495  65.328  0.00  0.00    +0.218 C 
ATOM     10  O   UNL     1     -10.893  15.772  66.159  0.00  0.00    -0.217 OA
BRANCH   9  11
ATOM     11  C   UNL     1     -12.115  15.165  64.305  0.00  0.00    +0.217 C 
ATOM     12  O   UNL     1     -11.648  16.388  63.950  0.00  0.00    -0.217 OA
ENDBRANCH   9  11
ENDBRANCH   7   9
ENDBRANCH   1   7
TORSDOF 5
ENDMDL
MODEL 9
REMARK VINA RESULT:      -4.3      2.037      3.698
REMARK  Name = 
REMARK  5 active torsions:
REMARK  status: ('A' for Active; 'I' for Inactive)
REMARK    1  A    between atoms: C_2  and  C_3
REMARK    2  A    between atoms: C_3  and  C_5
REMARK    3  A    between atoms: C_5  and  C_7
REMARK    4  A    between atoms: C_7  and  C_9
REMARK    5  A    between atoms: C_9  and  C_11
REMARK                            x       y       z     vdW  Elec       q    Type
REMARK                         _______ _______ _______ _____ _____    ______ ____
ROOT
ATOM      1  C   UNL     1     -10.686  15.330  66.875  0.00  0.00    +0.225 C 
ATOM      2  O   UNL     1      -9.810  14.214  67.391  0.00  0.00    -0.217 OA
ENDROOT
BRANCH   1   3
ATOM      3  C   UNL     1     -10.171  15.161  65.223  0.00  0.00    +0.258 C 
ATOM      4  F   UNL     1     -10.536  13.683  65.136  0.00  0.00    -0.226 F 
BRANCH   3   6
ATOM      5  O   UNL     1     -11.563  16.557  63.867  0.00  0.00    -0.285 OA
ATOM      6  C   UNL     1     -11.617  15.609  64.598  0.00  0.00    +0.245 C 
ENDBRANCH   3   6
ENDBRANCH   1   3
BRANCH   1   7
ATOM      7  C   UNL     1      -9.494  16.473  67.354  0.00  0.00    +0.218 C 
ATOM      8  O   UNL     1      -9.757  16.275  68.828  0.00  0.00    -0.217 OA
BRANCH   7   9
ATOM      9  C   UNL     1     -10.522  17.863  67.263  0.00  0.00    +0.218 C 
ATOM     10  O   UNL     1      -9.846  18.346  65.980  0.00  0.00    -0.217 OA
BRANCH   9  11
ATOM     11  C   UNL     1      -9.490  18.719  68.224  0.00  0.00    +0.217 C 
ATOM     12  O   UNL     1     -10.057  19.930  68.446  0.00  0.00    -0.217 OA
ENDBRANCH   9  11
ENDBRANCH   7   9
ENDBRANCH   1   7
TORSDOF 5
ENDMDL
