MODEL 1
REMARK VINA RESULT:      -6.7      0.000      0.000
REMARK  Name = 
REMARK  1 active torsions:
REMARK  status: ('A' for Active; 'I' for Inactive)
REMARK    1  A    between atoms: N_11  and  C_12
REMARK                            x       y       z     vdW  Elec       q    Type
REMARK                         _______ _______ _______ _____ _____    ______ ____
ROOT
ATOM      1  O   UNL     1      -8.122  15.919  66.121  0.00  0.00    -0.269 OA
ATOM      2  C   UNL     1      -8.551  16.596  66.221  0.00  0.00    +0.255 C 
ATOM      3  N   UNL     1      -9.766  16.652  66.964  0.00  0.00    -0.216 N 
ATOM      4  C   UNL     1     -10.096  18.011  67.289  0.00  0.00    +0.255 C 
ATOM      5  O   UNL     1     -11.203  18.552  67.495  0.00  0.00    -0.269 OA
ATOM      6  C   UNL     1      -8.897  18.795  66.956  0.00  0.00    +0.058 A 
ATOM      7  C   UNL     1      -8.525  20.058  67.408  0.00  0.00    +0.005 A 
ATOM      8  C   UNL     1      -7.245  20.509  67.206  0.00  0.00    +0.000 A 
ATOM      9  C   UNL     1      -6.378  19.741  66.476  0.00  0.00    +0.000 A 
ATOM     10  C   UNL     1      -6.726  18.439  66.151  0.00  0.00    +0.005 A 
ATOM     11  C   UNL     1      -8.015  17.959  66.303  0.00  0.00    +0.058 A 
ENDROOT
BRANCH   3  12
ATOM     12  C   UNL     1     -11.029  15.792  66.580  0.00  0.00    +0.162 C 
ATOM     13  C   UNL     1     -10.820  15.837  64.972  0.00  0.00    +0.266 C 
ATOM     14  O   UNL     1     -11.224  16.921  64.435  0.00  0.00    -0.271 OA
ATOM     15  N   UNL     1     -11.588  14.721  64.470  0.00  0.00    -0.143 NA
ATOM     16  C   UNL     1     -11.970  13.627  65.288  0.00  0.00    +0.248 C 
ATOM     17  O   UNL     1     -13.146  13.145  65.323  0.00  0.00    -0.273 OA
ATOM     18  C   UNL     1     -11.121  13.273  66.466  0.00  0.00    +0.089 C 
ATOM     19  C   UNL     1     -10.159  14.394  66.717  0.00  0.00    +0.039 C 
ENDBRANCH   3  12
TORSDOF 1
ENDMDL
MODEL 2
REMARK VINA RESULT:      -6.7      1.528      5.820
REMARK  Name = 
REMARK  1 active torsions:
REMARK  status: ('A' for Active; 'I' for Inactive)
REMARK    1  A    between atoms: N_11  and  C_12
REMARK                            x       y       z     vdW  Elec       q    Type
REMARK                         _______ _______ _______ _____ _____    ______ ____
ROOT
ATOM      1  O   UNL     1      -9.030  15.102  67.457  0.00  0.00    -0.269 OA
ATOM      2  C   UNL     1      -9.659  15.276  66.981  0.00  0.00    +0.255 C 
ATOM      3  N   UNL     1      -9.605  16.240  65.932  0.00  0.00    -0.216 N 
ATOM      4  C   UNL     1     -10.712  16.070  65.033  0.00  0.00    +0.255 C 
ATOM      5  O   UNL     1     -11.300  16.895  64.303  0.00  0.00    -0.269 OA
ATOM      6  C   UNL     1     -11.321  14.784  65.402  0.00  0.00    +0.058 A 
ATOM      7  C   UNL     1     -12.155  13.963  64.648  0.00  0.00    +0.005 A 
ATOM      8  C   UNL     1     -12.399  12.676  65.053  0.00  0.00    +0.000 A 
ATOM      9  C   UNL     1     -11.890  12.249  66.250  0.00  0.00    +0.000 A 
ATOM     10  C   UNL     1     -10.960  13.032  66.916  0.00  0.00    +0.005 A 
ATOM     11  C   UNL     1     -10.714  14.348  66.562  0.00  0.00    +0.058 A 
ENDROOT
BRANCH   3  12
ATOM     12  C   UNL     1      -9.261  17.754  66.197  0.00  0.00    +0.162 C 
ATOM     13  C   UNL     1      -9.655  17.777  67.770  0.00  0.00    +0.266 C 
ATOM     14  O   UNL     1     -10.908  17.883  67.980  0.00  0.00    -0.271 OA
ATOM     15  N   UNL     1      -8.966  18.928  68.306  0.00  0.00    -0.143 NA
ATOM     16  C   UNL     1      -7.850  19.520  67.660  0.00  0.00    +0.248 C 
ATOM     17  O   UNL     1      -7.724  20.770  67.468  0.00  0.00    -0.273 OA
ATOM     18  C   UNL     1      -6.984  18.669  66.788  0.00  0.00    +0.089 C 
ATOM     19  C   UNL     1      -7.688  17.372  66.533  0.00  0.00    +0.039 C 
ENDBRANCH   3  12
TORSDOF 1
ENDMDL
MODEL 3
REMARK VINA RESULT:      -6.4      3.864      5.347
REMARK  Name = 
REMARK  1 active torsions:
REMARK  status: ('A' for Active; 'I' for Inactive)
REMARK    1  A    between atoms: N_11  and  C_12
REMARK                            x       y       z     vdW  Elec       q    Type
REMARK                         _______ _______ _______ _____ _____    ______ ____
ROOT
ATOM      1  O   UNL     1     -12.063  11.981  67.762  0.00  0.00    -0.269 OA
ATOM      2  C   UNL     1     -11.709  12.703  67.837  0.00  0.00    +0.255 C 
ATOM      3  N   UNL     1     -11.545  13.612  66.750  0.00  0.00    -0.216 N 
ATOM      4  C   UNL     1     -11.245  14.930  67.236  0.00  0.00    +0.255 C 
ATOM      5  O   UNL     1     -10.609  15.866  66.707  0.00  0.00    -0.269 OA
ATOM      6  C   UNL     1     -11.495  14.879  68.684  0.00  0.00    +0.058 A 
ATOM      7  C   UNL     1     -11.732  15.928  69.568  0.00  0.00    +0.005 A 
ATOM      8  C   UNL     1     -12.217  15.670  70.825  0.00  0.00    +0.000 A 
ATOM      9  C   UNL     1     -12.370  14.369  71.223  0.00  0.00    +0.000 A 
ATOM     10  C   UNL     1     -12.255  13.351  70.289  0.00  0.00    +0.005 A 
ATOM     11  C   UNL     1     -11.734  13.563  69.025  0.00  0.00    +0.058 A 
ENDROOT
BRANCH   3  12
ATOM     12  C   UNL     1     -10.730  13.238  65.456  0.00  0.00    +0.162 C 
ATOM     13  C   UNL     1      -9.880  12.016  66.100  0.00  0.00    +0.266 C 
ATOM     14  O   UNL     1      -8.877  12.399  66.787  0.00  0.00    -0.271 OA
ATOM     15  N   UNL     1      -9.435  11.240  64.966  0.00  0.00    -0.143 NA
ATOM     16  C   UNL     1     -10.058  11.317  63.694  0.00  0.00    +0.248 C 
ATOM     17  O   UNL     1      -9.423  11.446  62.601  0.00  0.00    -0.273 OA
ATOM     18  C   UNL     1     -11.503  11.691  63.619  0.00  0.00    +0.089 C 
ATOM     19  C   UNL     1     -11.931  12.221  64.953  0.00  0.00    +0.039 C 
ENDBRANCH   3  12
TORSDOF 1
ENDMDL
MODEL 4
REMARK VINA RESULT:      -6.4      3.500      6.443
REMARK  Name = 
REMARK  1 active torsions:
REMARK  status: ('A' for Active; 'I' for Inactive)
REMARK    1  A    between atoms: N_11  and  C_12
REMARK                            x       y       z     vdW  Elec       q    Type
REMARK                         _______ _______ _______ _____ _____    ______ ____
ROOT
ATOM      1  O   UNL     1     -11.339  12.731  67.867  0.00  0.00    -0.269 OA
ATOM      2  C   UNL     1     -11.434  13.158  68.545  0.00  0.00    +0.255 C 
ATOM      3  N   UNL     1     -11.799  14.537  68.558  0.00  0.00    -0.216 N 
ATOM      4  C   UNL     1     -12.259  14.924  69.862  0.00  0.00    +0.255 C 
ATOM      5  O   UNL     1     -12.238  16.034  70.435  0.00  0.00    -0.269 OA
ATOM      6  C   UNL     1     -12.429  13.667  70.606  0.00  0.00    +0.058 A 
ATOM      7  C   UNL     1     -13.191  13.422  71.745  0.00  0.00    +0.005 A 
ATOM      8  C   UNL     1     -13.447  12.132  72.134  0.00  0.00    +0.000 A 
ATOM      9  C   UNL     1     -12.866  11.103  71.443  0.00  0.00    +0.000 A 
ATOM     10  C   UNL     1     -12.223  11.362  70.243  0.00  0.00    +0.005 A 
ATOM     11  C   UNL     1     -11.913  12.647  69.834  0.00  0.00    +0.058 A 
ENDROOT
BRANCH   3  12
ATOM     12  C   UNL     1     -10.922  15.646  67.865  0.00  0.00    +0.162 C 
ATOM     13  C   UNL     1      -9.474  15.016  68.232  0.00  0.00    +0.266 C 
ATOM     14  O   UNL     1      -9.096  15.267  69.424  0.00  0.00    -0.271 OA
ATOM     15  N   UNL     1      -8.561  15.616  67.288  0.00  0.00    -0.143 NA
ATOM     16  C   UNL     1      -8.995  16.198  66.069  0.00  0.00    +0.248 C 
ATOM     17  O   UNL     1      -8.616  17.337  65.653  0.00  0.00    -0.273 OA
ATOM     18  C   UNL     1     -10.250  15.693  65.433  0.00  0.00    +0.089 C 
ATOM     19  C   UNL     1     -10.979  14.838  66.425  0.00  0.00    +0.039 C 
ENDBRANCH   3  12
TORSDOF 1
ENDMDL
MODEL 5
REMARK VINA RESULT:      -6.4      1.736      5.831
REMARK  Name = 
REMARK  1 active torsions:
REMARK  status: ('A' for Active; 'I' for Inactive)
REMARK    1  A    between atoms: N_11  and  C_12
REMARK                            x       y       z     vdW  Elec       q    Type
REMARK                         _______ _______ _______ _____ _____    ______ ____
ROOT
ATOM      1  O   UNL     1     -10.918  16.698  64.655  0.00  0.00    -0.269 OA
ATOM      2  C   UNL     1     -10.698  16.173  65.228  0.00  0.00    +0.255 C 
ATOM      3  N   UNL     1     -10.601  16.516  66.609  0.00  0.00    -0.216 N 
ATOM      4  C   UNL     1     -10.567  15.333  67.422  0.00  0.00    +0.255 C 
ATOM      5  O   UNL     1     -10.057  15.132  68.544  0.00  0.00    -0.269 OA
ATOM      6  C   UNL     1     -10.921  14.228  66.518  0.00  0.00    +0.058 A 
ATOM      7  C   UNL     1     -11.401  12.960  66.834  0.00  0.00    +0.005 A 
ATOM      8  C   UNL     1     -11.934  12.165  65.852  0.00  0.00    +0.000 A 
ATOM      9  C   UNL     1     -11.899  12.599  64.554  0.00  0.00    +0.000 A 
ATOM     10  C   UNL     1     -11.540  13.910  64.281  0.00  0.00    +0.005 A 
ATOM     11  C   UNL     1     -10.962  14.731  65.233  0.00  0.00    +0.058 A 
ENDROOT
BRANCH   3  12
ATOM     12  C   UNL     1      -9.633  17.644  67.131  0.00  0.00    +0.162 C 
ATOM     13  C   UNL     1      -8.468  17.437  66.022  0.00  0.00    +0.266 C 
ATOM     14  O   UNL     1      -7.690  16.460  66.276  0.00  0.00    -0.271 OA
ATOM     15  N   UNL     1      -7.726  18.676  66.033  0.00  0.00    -0.143 NA
ATOM     16  C   UNL     1      -8.263  19.885  66.544  0.00  0.00    +0.248 C 
ATOM     17  O   UNL     1      -7.643  20.654  67.343  0.00  0.00    -0.273 OA
ATOM     18  C   UNL     1      -9.744  20.088  66.513  0.00  0.00    +0.089 C 
ATOM     19  C   UNL     1     -10.401  18.777  66.205  0.00  0.00    +0.039 C 
ENDBRANCH   3  12
TORSDOF 1
ENDMDL
MODEL 6
REMARK VINA RESULT:      -6.4      2.219      2.931
REMARK  Name = 
REMARK  1 active torsions:
REMARK  status: ('A' for Active; 'I' for Inactive)
REMARK    1  A    between atoms: N_11  and  C_12
REMARK                            x       y       z     vdW  Elec       q    Type
REMARK                         _______ _______ _______ _____ _____    ______ ____
ROOT
ATOM      1  O   UNL     1     -10.182  15.497  68.401  0.00  0.00    -0.269 OA
ATOM      2  C   UNL     1     -10.134  15.916  67.713  0.00  0.00    +0.255 C 
ATOM      3  N   UNL     1     -10.869  15.583  66.537  0.00  0.00    -0.216 N 
ATOM      4  C   UNL     1     -10.884  16.688  65.621  0.00  0.00    +0.255 C 
ATOM      5  O   UNL     1     -10.985  16.711  64.376  0.00  0.00    -0.269 OA
ATOM      6  C   UNL     1     -10.358  17.833  66.380  0.00  0.00    +0.058 A 
ATOM      7  C   UNL     1     -10.505  19.193  66.124  0.00  0.00    +0.005 A 
ATOM      8  C   UNL     1     -10.181  20.111  67.090  0.00  0.00    +0.000 A 
ATOM      9  C   UNL     1      -9.626  19.673  68.263  0.00  0.00    +0.000 A 
ATOM     10  C   UNL     1      -9.612  18.317  68.547  0.00  0.00    +0.005 A 
ATOM     11  C   UNL     1      -9.894  17.358  67.590  0.00  0.00    +0.058 A 
ENDROOT
BRANCH   3  12
ATOM     12  C   UNL     1     -10.715  14.192  65.814  0.00  0.00    +0.162 C 
ATOM     13  C   UNL     1     -11.772  13.372  66.731  0.00  0.00    +0.266 C 
ATOM     14  O   UNL     1     -11.292  12.998  67.851  0.00  0.00    -0.271 OA
ATOM     15  N   UNL     1     -12.131  12.219  65.938  0.00  0.00    -0.143 NA
ATOM     16  C   UNL     1     -11.949  12.172  64.532  0.00  0.00    +0.248 C 
ATOM     17  O   UNL     1     -11.417  11.195  63.919  0.00  0.00    -0.273 OA
ATOM     18  C   UNL     1     -11.974  13.450  63.757  0.00  0.00    +0.089 C 
ATOM     19  C   UNL     1     -11.884  14.596  64.718  0.00  0.00    +0.039 C 
ENDBRANCH   3  12
TORSDOF 1
ENDMDL
MODEL 7
REMARK VINA RESULT:      -6.4      3.416      7.254
REMARK  Name = 
REMARK  1 active torsions:
REMARK  status: ('A' for Active; 'I' for Inactive)
REMARK    1  A    between atoms: N_11  and  C_12
REMARK                            x       y       z     vdW  Elec       q    Type
REMARK                         _______ _______ _______ _____ _____    ______ ____
ROOT
ATOM      1  O   UNL     1     -10.652  12.306  67.648  0.00  0.00    -0.269 OA
ATOM      2  C   UNL     1     -10.667  11.768  67.046  0.00  0.00    +0.255 C 
ATOM      3  N   UNL     1     -10.088  12.009  65.765  0.00  0.00    -0.216 N 
ATOM      4  C   UNL     1      -9.926  10.778  65.045  0.00  0.00    +0.255 C 
ATOM      5  O   UNL     1      -9.906  10.551  63.817  0.00  0.00    -0.269 OA
ATOM      6  C   UNL     1     -10.174   9.713  66.029  0.00  0.00    +0.058 A 
ATOM      7  C   UNL     1      -9.791   8.376  65.985  0.00  0.00    +0.005 A 
ATOM      8  C   UNL     1      -9.871   7.603  67.115  0.00  0.00    +0.000 A 
ATOM      9  C   UNL     1     -10.418   8.140  68.250  0.00  0.00    +0.000 A 
ATOM     10  C   UNL     1     -10.669   9.502  68.309  0.00  0.00    +0.005 A 
ATOM     11  C   UNL     1     -10.637  10.308  67.185  0.00  0.00    +0.058 A 
ENDROOT
BRANCH   3  12
ATOM     12  C   UNL     1     -10.549  13.200  64.844  0.00  0.00    +0.162 C 
ATOM     13  C   UNL     1     -12.096  13.242  65.329  0.00  0.00    +0.266 C 
ATOM     14  O   UNL     1     -12.827  12.353  64.781  0.00  0.00    -0.271 OA
ATOM     15  N   UNL     1     -12.562  14.559  64.963  0.00  0.00    -0.143 NA
ATOM     16  C   UNL     1     -11.678  15.640  64.713  0.00  0.00    +0.248 C 
ATOM     17  O   UNL     1     -11.766  16.408  63.705  0.00  0.00    -0.273 OA
ATOM     18  C   UNL     1     -10.345  15.655  65.390  0.00  0.00    +0.089 C 
ATOM     19  C   UNL     1     -10.095  14.304  65.987  0.00  0.00    +0.039 C 
ENDBRANCH   3  12
TORSDOF 1
ENDMDL
MODEL 8
REMARK VINA RESULT:      -6.2      2.145      2.692
REMARK  Name = 
REMARK  1 active torsions:
REMARK  status: ('A' for Active; 'I' for Inactive)
REMARK    1  A    between atoms: N_11  and  C_12
REMARK                            x       y       z     vdW  Elec       q    Type
REMARK                         _______ _______ _______ _____ _____    ______ ____
ROOT
ATOM      1  O   UNL     1     -10.546  16.192  65.196  0.00  0.00    -0.269 OA
ATOM      2  C   UNL     1     -10.404  16.369  65.972  0.00  0.00    +0.255 C 
ATOM      3  N   UNL     1      -9.621  15.547  66.833  0.00  0.00    -0.216 N 
ATOM      4  C   UNL     1      -9.228  16.275  68.007  0.00  0.00    +0.255 C 
ATOM      5  O   UNL     1      -8.964  15.877  69.161  0.00  0.00    -0.269 OA
ATOM      6  C   UNL     1      -9.566  17.679  67.727  0.00  0.00    +0.058 A 
ATOM      7  C   UNL     1      -9.073  18.833  68.328  0.00  0.00    +0.005 A 
ATOM      8  C   UNL     1      -9.296  20.057  67.750  0.00  0.00    +0.000 A 
ATOM      9  C   UNL     1     -10.086  20.129  66.633  0.00  0.00    +0.000 A 
ATOM     10  C   UNL     1     -10.454  18.963  65.980  0.00  0.00    +0.005 A 
ATOM     11  C   UNL     1     -10.282  17.713  66.547  0.00  0.00    +0.058 A 
ENDROOT
BRANCH   3  12
ATOM     12  C   UNL     1     -10.000  14.050  67.142  0.00  0.00    +0.162 C 
ATOM     13  C   UNL     1     -11.606  14.261  67.216  0.00  0.00    +0.266 C 
ATOM     14  O   UNL     1     -12.008  14.736  68.329  0.00  0.00    -0.271 OA
ATOM     15  N   UNL     1     -12.161  12.942  67.013  0.00  0.00    -0.143 NA
ATOM     16  C   UNL     1     -11.429  11.890  66.406  0.00  0.00    +0.248 C 
ATOM     17  O   UNL     1     -11.362  10.711  66.874  0.00  0.00    -0.273 OA
ATOM     18  C   UNL     1     -10.350  12.231  65.429  0.00  0.00    +0.089 C 
ATOM     19  C   UNL     1     -10.057  13.697  65.529  0.00  0.00    +0.039 C 
ENDBRANCH   3  12
TORSDOF 1
ENDMDL
MODEL 9
REMARK VINA RESULT:      -6.2      1.334      2.472
REMARK  Name = 
REMARK  1 active torsions:
REMARK  status: ('A' for Active; 'I' for Inactive)
REMARK    1  A    between atoms: N_11  and  C_12
REMARK                            x       y       z     vdW  Elec       q    Type
REMARK                         _______ _______ _______ _____ _____    ______ ____
ROOT
ATOM      1  O   UNL     1     -10.534  17.806  65.721  0.00  0.00    -0.269 OA
ATOM      2  C   UNL     1      -9.883  17.566  66.135  0.00  0.00    +0.255 C 
ATOM      3  N   UNL     1      -9.183  16.354  65.861  0.00  0.00    -0.216 N 
ATOM      4  C   UNL     1      -7.885  16.372  66.474  0.00  0.00    +0.255 C 
ATOM      5  O   UNL     1      -7.163  15.436  66.876  0.00  0.00    -0.269 OA
ATOM      6  C   UNL     1      -7.683  17.758  66.921  0.00  0.00    +0.058 A 
ATOM      7  C   UNL     1      -6.492  18.415  67.220  0.00  0.00    +0.005 A 
ATOM      8  C   UNL     1      -6.477  19.780  67.352  0.00  0.00    +0.000 A 
ATOM      9  C   UNL     1      -7.660  20.467  67.280  0.00  0.00    +0.000 A 
ATOM     10  C   UNL     1      -8.805  19.814  66.853  0.00  0.00    +0.005 A 
ATOM     11  C   UNL     1      -8.872  18.436  66.744  0.00  0.00    +0.058 A 
ENDROOT
BRANCH   3  12
ATOM     12  C   UNL     1      -9.878  14.943  65.943  0.00  0.00    +0.162 C 
ATOM     13  C   UNL     1     -10.856  15.274  67.194  0.00  0.00    +0.266 C 
ATOM     14  O   UNL     1     -10.275  15.207  68.327  0.00  0.00    -0.271 OA
ATOM     15  N   UNL     1     -11.902  14.281  67.116  0.00  0.00    -0.143 NA
ATOM     16  C   UNL     1     -12.192  13.568  65.924  0.00  0.00    +0.248 C 
ATOM     17  O   UNL     1     -12.353  12.309  65.875  0.00  0.00    -0.273 OA
ATOM     18  C   UNL     1     -11.889  14.207  64.608  0.00  0.00    +0.089 C 
ATOM     19  C   UNL     1     -11.023  15.406  64.845  0.00  0.00    +0.039 C 
ENDBRANCH   3  12
TORSDOF 1
ENDMDL
