MODEL 1
REMARK VINA RESULT:      -6.6      0.000      0.000
REMARK  Name = 
REMARK  2 active torsions:
REMARK  status: ('A' for Active; 'I' for Inactive)
REMARK    1  A    between atoms: C_2  and  C_3
REMARK    2  A    between atoms: C_21  and  C_22
REMARK                            x       y       z     vdW  Elec       q    Type
REMARK                         _______ _______ _______ _____ _____    ______ ____
ROOT
ATOM      1  C   UNL     1     -10.301  11.542  65.924  0.00  0.00    +0.180 C 
ATOM      2  C   UNL     1     -10.305  12.355  67.161  0.00  0.00    +0.037 C 
ATOM      3  C   UNL     1     -11.716  11.755  67.745  0.00  0.00    +0.003 C 
ATOM      4  C   UNL     1     -11.316  12.195  69.348  0.00  0.00    +0.001 C 
ATOM      5  C   UNL     1     -12.036  13.712  69.135  0.00  0.00    +0.004 C 
ATOM      6  C   UNL     1     -10.706  14.342  68.460  0.00  0.00    +0.000 C 
ATOM      7  C   UNL     1     -11.525  14.196  70.697  0.00  0.00    +0.019 C 
ATOM      8  C   UNL     1     -12.826  13.521  71.387  0.00  0.00    -0.042 C 
ATOM      9  C   UNL     1     -13.093  14.081  72.557  0.00  0.00    +0.029 C 
ATOM     10  C   UNL     1     -12.835  15.466  72.880  0.00  0.00    +0.173 C 
ATOM     11  C   UNL     1     -12.019  16.246  71.897  0.00  0.00    +0.069 C 
ATOM     12  O   UNL     1     -13.643  16.168  73.564  0.00  0.00    -0.291 OA
ATOM     13  C   UNL     1     -12.822  12.034  71.357  0.00  0.00    +0.022 C 
ATOM     14  C   UNL     1     -12.293  15.649  70.544  0.00  0.00    +0.012 C 
ATOM     15  C   UNL     1     -12.685  11.549  69.922  0.00  0.00    +0.004 C 
ATOM     16  C   UNL     1     -11.009  10.279  67.886  0.00  0.00    +0.004 C 
ATOM     17  C   UNL     1     -10.579  13.786  67.071  0.00  0.00    +0.003 C 
ATOM     18  C   UNL     1     -10.461  10.128  66.471  0.00  0.00    +0.043 C 
ATOM     19  O   UNL     1      -9.055  11.689  65.303  0.00  0.00    -0.212 OA
ENDROOT
BRANCH   1  21
ATOM     20  C   UNL     1     -12.061  12.214  64.168  0.00  0.00    -0.012 C 
ATOM     21  C   UNL     1     -11.397  11.883  65.024  0.00  0.00    -0.049 C 
ENDBRANCH   1  21
BRANCH   2  22
ATOM     22  C   UNL     1      -9.226  11.895  68.066  0.00  0.00    +0.003 C 
ATOM     23  C   UNL     1      -7.943  12.652  67.977  0.00  0.00    +0.000 C 
ENDBRANCH   2  22
TORSDOF 2
ENDMDL
MODEL 2
REMARK VINA RESULT:      -6.4      3.636      5.309
REMARK  Name = 
REMARK  2 active torsions:
REMARK  status: ('A' for Active; 'I' for Inactive)
REMARK    1  A    between atoms: C_2  and  C_3
REMARK    2  A    between atoms: C_21  and  C_22
REMARK                            x       y       z     vdW  Elec       q    Type
REMARK                         _______ _______ _______ _____ _____    ______ ____
ROOT
ATOM      1  C   UNL     1     -11.265  12.220  66.017  0.00  0.00    +0.180 C 
ATOM      2  C   UNL     1     -10.692  13.315  66.831  0.00  0.00    +0.037 C 
ATOM      3  C   UNL     1     -10.617  14.405  65.607  0.00  0.00    +0.003 C 
ATOM      4  C   UNL     1     -10.602  15.724  66.695  0.00  0.00    +0.001 C 
ATOM      5  C   UNL     1      -8.912  15.673  66.769  0.00  0.00    +0.004 C 
ATOM      6  C   UNL     1      -8.913  14.526  67.910  0.00  0.00    +0.000 C 
ATOM      7  C   UNL     1      -8.907  16.912  67.953  0.00  0.00    +0.019 C 
ATOM      8  C   UNL     1      -8.960  18.066  66.818  0.00  0.00    -0.042 C 
ATOM      9  C   UNL     1      -8.477  19.211  67.276  0.00  0.00    +0.029 C 
ATOM     10  C   UNL     1      -7.424  19.321  68.261  0.00  0.00    +0.173 C 
ATOM     11  C   UNL     1      -7.016  18.058  68.953  0.00  0.00    +0.069 C 
ATOM     12  O   UNL     1      -6.507  20.195  68.182  0.00  0.00    -0.291 OA
ATOM     13  C   UNL     1     -10.259  18.144  66.098  0.00  0.00    +0.022 C 
ATOM     14  C   UNL     1      -7.256  16.938  67.978  0.00  0.00    +0.012 C 
ATOM     15  C   UNL     1     -10.585  16.794  65.479  0.00  0.00    +0.004 C 
ATOM     16  C   UNL     1     -12.257  14.391  65.518  0.00  0.00    +0.004 C 
ATOM     17  C   UNL     1      -9.302  13.225  67.266  0.00  0.00    +0.003 C 
ATOM     18  C   UNL     1     -12.487  12.888  65.399  0.00  0.00    +0.043 C 
ATOM     19  O   UNL     1     -11.655  11.186  66.878  0.00  0.00    -0.212 OA
ENDROOT
BRANCH   1  21
ATOM     20  C   UNL     1      -9.820  11.214  64.137  0.00  0.00    -0.012 C 
ATOM     21  C   UNL     1     -10.348  11.747  64.986  0.00  0.00    -0.049 C 
ENDBRANCH   1  21
BRANCH   2  22
ATOM     22  C   UNL     1     -11.706  13.806  67.793  0.00  0.00    +0.003 C 
ATOM     23  C   UNL     1     -11.648  13.203  69.157  0.00  0.00    +0.000 C 
ENDBRANCH   2  22
TORSDOF 2
ENDMDL
MODEL 3
REMARK VINA RESULT:      -6.2      4.869      7.291
REMARK  Name = 
REMARK  2 active torsions:
REMARK  status: ('A' for Active; 'I' for Inactive)
REMARK    1  A    between atoms: C_2  and  C_3
REMARK    2  A    between atoms: C_21  and  C_22
REMARK                            x       y       z     vdW  Elec       q    Type
REMARK                         _______ _______ _______ _____ _____    ______ ____
ROOT
ATOM      1  C   UNL     1      -7.196  19.957  66.926  0.00  0.00    +0.180 C 
ATOM      2  C   UNL     1      -8.266  18.951  67.109  0.00  0.00    +0.037 C 
ATOM      3  C   UNL     1      -7.335  17.653  66.735  0.00  0.00    +0.003 C 
ATOM      4  C   UNL     1      -8.373  16.584  67.576  0.00  0.00    +0.001 C 
ATOM      5  C   UNL     1      -9.294  16.342  66.176  0.00  0.00    +0.004 C 
ATOM      6  C   UNL     1     -10.187  17.666  66.434  0.00  0.00    +0.000 C 
ATOM      7  C   UNL     1     -10.402  15.371  67.051  0.00  0.00    +0.019 C 
ATOM      8  C   UNL     1      -9.487  14.051  66.844  0.00  0.00    -0.042 C 
ATOM      9  C   UNL     1     -10.209  12.946  66.946  0.00  0.00    +0.029 C 
ATOM     10  C   UNL     1     -11.598  12.836  66.558  0.00  0.00    +0.173 C 
ATOM     11  C   UNL     1     -12.307  14.112  66.228  0.00  0.00    +0.069 C 
ATOM     12  O   UNL     1     -12.063  11.812  65.970  0.00  0.00    -0.291 OA
ATOM     13  C   UNL     1      -8.213  14.073  67.612  0.00  0.00    +0.022 C 
ATOM     14  C   UNL     1     -11.267  15.051  65.680  0.00  0.00    +0.012 C 
ATOM     15  C   UNL     1      -7.418  15.318  67.250  0.00  0.00    +0.004 C 
ATOM     16  C   UNL     1      -6.422  17.947  68.069  0.00  0.00    +0.004 C 
ATOM     17  C   UNL     1      -9.342  18.868  66.125  0.00  0.00    +0.003 C 
ATOM     18  C   UNL     1      -6.092  19.415  67.827  0.00  0.00    +0.043 C 
ATOM     19  O   UNL     1      -7.660  21.188  67.405  0.00  0.00    -0.212 OA
ENDROOT
BRANCH   1  21
ATOM     20  C   UNL     1      -6.282  20.334  64.548  0.00  0.00    -0.012 C 
ATOM     21  C   UNL     1      -6.745  20.050  65.542  0.00  0.00    -0.049 C 
ENDBRANCH   1  21
BRANCH   2  22
ATOM     22  C   UNL     1      -8.611  18.844  68.546  0.00  0.00    +0.003 C 
ATOM     23  C   UNL     1      -9.812  19.614  68.981  0.00  0.00    +0.000 C 
ENDBRANCH   2  22
TORSDOF 2
ENDMDL
MODEL 4
REMARK VINA RESULT:      -6.2      2.757      4.826
REMARK  Name = 
REMARK  2 active torsions:
REMARK  status: ('A' for Active; 'I' for Inactive)
REMARK    1  A    between atoms: C_2  and  C_3
REMARK    2  A    between atoms: C_21  and  C_22
REMARK                            x       y       z     vdW  Elec       q    Type
REMARK                         _______ _______ _______ _____ _____    ______ ____
ROOT
ATOM      1  C   UNL     1     -10.131  14.460  66.219  0.00  0.00    +0.180 C 
ATOM      2  C   UNL     1     -10.534  13.117  66.693  0.00  0.00    +0.037 C 
ATOM      3  C   UNL     1     -10.636  13.527  68.278  0.00  0.00    +0.003 C 
ATOM      4  C   UNL     1     -11.685  12.219  68.616  0.00  0.00    +0.001 C 
ATOM      5  C   UNL     1     -10.363  11.216  68.948  0.00  0.00    +0.004 C 
ATOM      6  C   UNL     1     -10.145  10.845  67.389  0.00  0.00    +0.000 C 
ATOM      7  C   UNL     1     -11.410   9.876  69.166  0.00  0.00    +0.019 C 
ATOM      8  C   UNL     1     -11.676  10.271  70.714  0.00  0.00    -0.042 C 
ATOM      9  C   UNL     1     -12.056   9.216  71.419  0.00  0.00    +0.029 C 
ATOM     10  C   UNL     1     -11.623   7.861  71.163  0.00  0.00    +0.173 C 
ATOM     11  C   UNL     1     -10.873   7.623  69.889  0.00  0.00    +0.069 C 
ATOM     12  O   UNL     1     -11.340   7.048  72.096  0.00  0.00    -0.291 OA
ATOM     13  C   UNL     1     -12.489  11.504  70.891  0.00  0.00    +0.022 C 
ATOM     14  C   UNL     1     -10.143   8.900  69.577  0.00  0.00    +0.012 C 
ATOM     15  C   UNL     1     -11.825  12.665  70.167  0.00  0.00    +0.004 C 
ATOM     16  C   UNL     1     -11.879  14.538  67.918  0.00  0.00    +0.004 C 
ATOM     17  C   UNL     1      -9.548  12.041  66.703  0.00  0.00    +0.003 C 
ATOM     18  C   UNL     1     -11.229  15.345  66.799  0.00  0.00    +0.043 C 
ATOM     19  O   UNL     1     -10.182  14.470  64.820  0.00  0.00    -0.212 OA
ENDROOT
BRANCH   1  21
ATOM     20  C   UNL     1      -7.884  15.404  67.054  0.00  0.00    -0.012 C 
ATOM     21  C   UNL     1      -8.819  14.860  66.715  0.00  0.00    -0.049 C 
ENDBRANCH   1  21
BRANCH   2  22
ATOM     22  C   UNL     1     -11.908  12.815  66.229  0.00  0.00    +0.003 C 
ATOM     23  C   UNL     1     -12.012  12.205  64.871  0.00  0.00    +0.000 C 
ENDBRANCH   2  22
TORSDOF 2
ENDMDL
MODEL 5
REMARK VINA RESULT:      -6.2      3.819      5.668
REMARK  Name = 
REMARK  2 active torsions:
REMARK  status: ('A' for Active; 'I' for Inactive)
REMARK    1  A    between atoms: C_2  and  C_3
REMARK    2  A    between atoms: C_21  and  C_22
REMARK                            x       y       z     vdW  Elec       q    Type
REMARK                         _______ _______ _______ _____ _____    ______ ____
ROOT
ATOM      1  C   UNL     1     -11.010  12.324  67.384  0.00  0.00    +0.180 C 
ATOM      2  C   UNL     1     -10.688  13.692  66.921  0.00  0.00    +0.037 C 
ATOM      3  C   UNL     1      -9.304  13.837  67.790  0.00  0.00    +0.003 C 
ATOM      4  C   UNL     1      -8.700  15.052  66.749  0.00  0.00    +0.001 C 
ATOM      5  C   UNL     1      -9.432  16.254  67.690  0.00  0.00    +0.004 C 
ATOM      6  C   UNL     1     -10.855  16.094  66.938  0.00  0.00    +0.000 C 
ATOM      7  C   UNL     1      -8.930  17.457  66.578  0.00  0.00    +0.019 C 
ATOM      8  C   UNL     1      -7.481  17.585  67.292  0.00  0.00    -0.042 C 
ATOM      9  C   UNL     1      -6.931  18.765  67.053  0.00  0.00    +0.029 C 
ATOM     10  C   UNL     1      -7.673  19.993  66.872  0.00  0.00    +0.173 C 
ATOM     11  C   UNL     1      -9.158  19.868  66.734  0.00  0.00    +0.069 C 
ATOM     12  O   UNL     1      -7.284  21.102  67.352  0.00  0.00    -0.291 OA
ATOM     13  C   UNL     1      -6.604  16.401  67.093  0.00  0.00    +0.022 C 
ATOM     14  C   UNL     1      -9.562  18.654  67.525  0.00  0.00    +0.012 C 
ATOM     15  C   UNL     1      -7.314  15.148  67.581  0.00  0.00    +0.004 C 
ATOM     16  C   UNL     1      -8.640  12.628  66.900  0.00  0.00    +0.004 C 
ATOM     17  C   UNL     1     -11.489  14.814  67.403  0.00  0.00    +0.003 C 
ATOM     18  C   UNL     1      -9.724  11.570  67.067  0.00  0.00    +0.043 C 
ATOM     19  O   UNL     1     -12.070  11.834  66.612  0.00  0.00    -0.212 OA
ENDROOT
BRANCH   1  21
ATOM     20  C   UNL     1     -11.725  12.068  69.845  0.00  0.00    -0.012 C 
ATOM     21  C   UNL     1     -11.311  12.271  68.810  0.00  0.00    -0.049 C 
ENDBRANCH   1  21
BRANCH   2  22
ATOM     22  C   UNL     1     -10.304  13.658  65.490  0.00  0.00    +0.003 C 
ATOM     23  C   UNL     1     -11.417  13.872  64.518  0.00  0.00    +0.000 C 
ENDBRANCH   2  22
TORSDOF 2
ENDMDL
MODEL 6
REMARK VINA RESULT:      -6.1      4.547      6.273
REMARK  Name = 
REMARK  2 active torsions:
REMARK  status: ('A' for Active; 'I' for Inactive)
REMARK    1  A    between atoms: C_2  and  C_3
REMARK    2  A    between atoms: C_21  and  C_22
REMARK                            x       y       z     vdW  Elec       q    Type
REMARK                         _______ _______ _______ _____ _____    ______ ____
ROOT
ATOM      1  C   UNL     1     -11.159  13.803  67.365  0.00  0.00    +0.180 C 
ATOM      2  C   UNL     1      -9.971  14.686  67.365  0.00  0.00    +0.037 C 
ATOM      3  C   UNL     1     -10.805  16.081  67.587  0.00  0.00    +0.003 C 
ATOM      4  C   UNL     1      -9.430  16.880  68.215  0.00  0.00    +0.001 C 
ATOM      5  C   UNL     1      -8.983  17.380  66.661  0.00  0.00    +0.004 C 
ATOM      6  C   UNL     1      -8.225  15.987  66.340  0.00  0.00    +0.000 C 
ATOM      7  C   UNL     1      -7.542  18.073  67.277  0.00  0.00    +0.019 C 
ATOM      8  C   UNL     1      -8.305  19.452  67.652  0.00  0.00    -0.042 C 
ATOM      9  C   UNL     1      -7.458  20.467  67.713  0.00  0.00    +0.029 C 
ATOM     10  C   UNL     1      -6.264  20.588  66.907  0.00  0.00    +0.173 C 
ATOM     11  C   UNL     1      -5.861  19.383  66.116  0.00  0.00    +0.069 C 
ATOM     12  O   UNL     1      -5.890  21.693  66.405  0.00  0.00    -0.291 OA
ATOM     13  C   UNL     1      -9.259  19.325  68.786  0.00  0.00    +0.022 C 
ATOM     14  C   UNL     1      -7.129  18.645  65.784  0.00  0.00    +0.012 C 
ATOM     15  C   UNL     1     -10.275  18.235  68.483  0.00  0.00    +0.004 C 
ATOM     16  C   UNL     1     -11.273  15.545  69.067  0.00  0.00    +0.004 C 
ATOM     17  C   UNL     1      -9.266  14.930  66.110  0.00  0.00    +0.003 C 
ATOM     18  C   UNL     1     -11.841  14.187  68.674  0.00  0.00    +0.043 C 
ATOM     19  O   UNL     1     -10.722  12.473  67.412  0.00  0.00    -0.212 OA
ENDROOT
BRANCH   1  21
ATOM     20  C   UNL     1     -12.687  13.984  65.300  0.00  0.00    -0.012 C 
ATOM     21  C   UNL     1     -12.038  14.044  66.226  0.00  0.00    -0.049 C 
ENDBRANCH   1  21
BRANCH   2  22
ATOM     22  C   UNL     1      -9.175  14.452  68.592  0.00  0.00    +0.003 C 
ATOM     23  C   UNL     1      -8.000  13.544  68.436  0.00  0.00    +0.000 C 
ENDBRANCH   2  22
TORSDOF 2
ENDMDL
MODEL 7
REMARK VINA RESULT:      -6.0      4.291      6.922
REMARK  Name = 
REMARK  2 active torsions:
REMARK  status: ('A' for Active; 'I' for Inactive)
REMARK    1  A    between atoms: C_2  and  C_3
REMARK    2  A    between atoms: C_21  and  C_22
REMARK                            x       y       z     vdW  Elec       q    Type
REMARK                         _______ _______ _______ _____ _____    ______ ____
ROOT
ATOM      1  C   UNL     1      -6.612  18.591  67.882  0.00  0.00    +0.180 C 
ATOM      2  C   UNL     1      -7.924  18.002  67.532  0.00  0.00    +0.037 C 
ATOM      3  C   UNL     1      -7.425  16.440  67.600  0.00  0.00    +0.003 C 
ATOM      4  C   UNL     1      -9.019  15.873  67.846  0.00  0.00    +0.001 C 
ATOM      5  C   UNL     1      -9.254  15.738  66.175  0.00  0.00    +0.004 C 
ATOM      6  C   UNL     1      -9.662  17.296  66.022  0.00  0.00    +0.000 C 
ATOM      7  C   UNL     1     -10.889  15.289  66.422  0.00  0.00    +0.019 C 
ATOM      8  C   UNL     1     -10.484  13.735  66.631  0.00  0.00    -0.042 C 
ATOM      9  C   UNL     1     -11.504  12.933  66.365  0.00  0.00    +0.029 C 
ATOM     10  C   UNL     1     -12.527  13.208  65.381  0.00  0.00    +0.173 C 
ATOM     11  C   UNL     1     -12.540  14.583  64.789  0.00  0.00    +0.069 C 
ATOM     12  O   UNL     1     -13.002  12.307  64.623  0.00  0.00    -0.291 OA
ATOM     13  C   UNL     1      -9.752  13.466  67.898  0.00  0.00    +0.022 C 
ATOM     14  C   UNL     1     -11.116  15.068  64.801  0.00  0.00    +0.012 C 
ATOM     15  C   UNL     1      -8.510  14.340  67.969  0.00  0.00    +0.004 C 
ATOM     16  C   UNL     1      -7.150  16.617  69.209  0.00  0.00    +0.004 C 
ATOM     17  C   UNL     1      -8.415  18.122  66.162  0.00  0.00    +0.003 C 
ATOM     18  C   UNL     1      -6.272  17.863  69.178  0.00  0.00    +0.043 C 
ATOM     19  O   UNL     1      -6.791  19.959  68.121  0.00  0.00    -0.212 OA
ENDROOT
BRANCH   1  21
ATOM     20  C   UNL     1      -4.667  18.306  66.219  0.00  0.00    -0.012 C 
ATOM     21  C   UNL     1      -5.598  18.348  66.863  0.00  0.00    -0.049 C 
ENDBRANCH   1  21
BRANCH   2  22
ATOM     22  C   UNL     1      -8.877  18.205  68.648  0.00  0.00    +0.003 C 
ATOM     23  C   UNL     1      -9.718  19.436  68.562  0.00  0.00    +0.000 C 
ENDBRANCH   2  22
TORSDOF 2
ENDMDL
MODEL 8
REMARK VINA RESULT:      -6.0      3.305      5.504
REMARK  Name = 
REMARK  2 active torsions:
REMARK  status: ('A' for Active; 'I' for Inactive)
REMARK    1  A    between atoms: C_2  and  C_3
REMARK    2  A    between atoms: C_21  and  C_22
REMARK                            x       y       z     vdW  Elec       q    Type
REMARK                         _______ _______ _______ _____ _____    ______ ____
ROOT
ATOM      1  C   UNL     1      -9.263   7.655  69.316  0.00  0.00    +0.180 C 
ATOM      2  C   UNL     1      -9.276   8.813  68.395  0.00  0.00    +0.037 C 
ATOM      3  C   UNL     1     -10.686   9.445  68.948  0.00  0.00    +0.003 C 
ATOM      4  C   UNL     1     -10.293  11.003  68.362  0.00  0.00    +0.001 C 
ATOM      5  C   UNL     1     -11.020  10.652  66.874  0.00  0.00    +0.004 C 
ATOM      6  C   UNL     1      -9.692   9.927  66.301  0.00  0.00    +0.000 C 
ATOM      7  C   UNL     1     -10.517  12.166  66.249  0.00  0.00    +0.019 C 
ATOM      8  C   UNL     1     -11.816  12.910  66.866  0.00  0.00    -0.042 C 
ATOM      9  C   UNL     1     -12.090  14.024  66.205  0.00  0.00    +0.029 C 
ATOM     10  C   UNL     1     -11.841  14.222  64.794  0.00  0.00    +0.173 C 
ATOM     11  C   UNL     1     -11.027  13.174  64.101  0.00  0.00    +0.069 C 
ATOM     12  O   UNL     1     -12.654  14.837  64.039  0.00  0.00    -0.291 OA
ATOM     13  C   UNL     1     -11.804  13.015  68.350  0.00  0.00    +0.022 C 
ATOM     14  C   UNL     1     -11.293  11.879  64.820  0.00  0.00    +0.012 C 
ATOM     15  C   UNL     1     -11.660  11.630  68.961  0.00  0.00    +0.004 C 
ATOM     16  C   UNL     1      -9.971   9.721  70.400  0.00  0.00    +0.004 C 
ATOM     17  C   UNL     1      -9.557   8.593  66.979  0.00  0.00    +0.003 C 
ATOM     18  C   UNL     1      -9.417   8.327  70.675  0.00  0.00    +0.043 C 
ATOM     19  O   UNL     1      -8.016   7.026  69.218  0.00  0.00    -0.212 OA
ENDROOT
BRANCH   1  21
ATOM     20  C   UNL     1     -11.228   6.001  69.120  0.00  0.00    -0.012 C 
ATOM     21  C   UNL     1     -10.358   6.725  69.064  0.00  0.00    -0.049 C 
ENDBRANCH   1  21
BRANCH   2  22
ATOM     22  C   UNL     1      -8.197   9.758  68.765  0.00  0.00    +0.003 C 
ATOM     23  C   UNL     1      -6.913   9.595  68.022  0.00  0.00    +0.000 C 
ENDBRANCH   2  22
TORSDOF 2
ENDMDL
MODEL 9
REMARK VINA RESULT:      -5.8      3.300      5.502
REMARK  Name = 
REMARK  2 active torsions:
REMARK  status: ('A' for Active; 'I' for Inactive)
REMARK    1  A    between atoms: C_2  and  C_3
REMARK    2  A    between atoms: C_21  and  C_22
REMARK                            x       y       z     vdW  Elec       q    Type
REMARK                         _______ _______ _______ _____ _____    ______ ____
ROOT
ATOM      1  C   UNL     1     -11.360  13.227  65.242  0.00  0.00    +0.180 C 
ATOM      2  C   UNL     1     -10.589  13.614  66.445  0.00  0.00    +0.037 C 
ATOM      3  C   UNL     1      -9.600  14.670  65.673  0.00  0.00    +0.003 C 
ATOM      4  C   UNL     1      -9.249  15.504  67.124  0.00  0.00    +0.001 C 
ATOM      5  C   UNL     1      -7.938  14.476  67.424  0.00  0.00    +0.004 C 
ATOM      6  C   UNL     1      -8.871  13.347  68.111  0.00  0.00    +0.000 C 
ATOM      7  C   UNL     1      -7.665  15.234  68.936  0.00  0.00    +0.019 C 
ATOM      8  C   UNL     1      -6.773  16.398  68.249  0.00  0.00    -0.042 C 
ATOM      9  C   UNL     1      -5.942  16.944  69.124  0.00  0.00    +0.029 C 
ATOM     10  C   UNL     1      -5.339  16.238  70.232  0.00  0.00    +0.173 C 
ATOM     11  C   UNL     1      -5.865  14.868  70.523  0.00  0.00    +0.069 C 
ATOM     12  O   UNL     1      -4.132  16.421  70.581  0.00  0.00    -0.291 OA
ATOM     13  C   UNL     1      -7.558  17.345  67.413  0.00  0.00    +0.022 C 
ATOM     14  C   UNL     1      -6.331  14.300  69.210  0.00  0.00    +0.012 C 
ATOM     15  C   UNL     1      -8.319  16.576  66.344  0.00  0.00    +0.004 C 
ATOM     16  C   UNL     1     -10.899  15.619  65.345  0.00  0.00    +0.004 C 
ATOM     17  C   UNL     1      -9.649  12.659  67.025  0.00  0.00    +0.003 C 
ATOM     18  C   UNL     1     -11.813  14.580  64.706  0.00  0.00    +0.043 C 
ATOM     19  O   UNL     1     -12.462  12.466  65.648  0.00  0.00    -0.212 OA
ENDROOT
BRANCH   1  21
ATOM     20  C   UNL     1     -10.139  11.887  63.412  0.00  0.00    -0.012 C 
ATOM     21  C   UNL     1     -10.547  12.520  64.259  0.00  0.00    -0.049 C 
ENDBRANCH   1  21
BRANCH   2  22
ATOM     22  C   UNL     1     -11.449  14.405  67.356  0.00  0.00    +0.003 C 
ATOM     23  C   UNL     1     -12.003  13.664  68.527  0.00  0.00    +0.000 C 
ENDBRANCH   2  22
TORSDOF 2
ENDMDL
