MODEL 1
REMARK VINA RESULT:      -8.3      0.000      0.000
REMARK  Name = 
REMARK  5 active torsions:
REMARK  status: ('A' for Active; 'I' for Inactive)
REMARK    1  A    between atoms: N_5  and  C_6
REMARK    2  A    between atoms: C_6  and  C_7
REMARK    3  A    between atoms: C_7  and  C_8
REMARK    4  A    between atoms: C_8  and  N_9
REMARK    5  A    between atoms: C_20  and  C_21
REMARK                            x       y       z     vdW  Elec       q    Type
REMARK                         _______ _______ _______ _____ _____    ______ ____
ROOT
ATOM      1  N   UNL     1     -11.455  14.768  68.610  0.00  0.00    -0.286 N 
ATOM      2  C   UNL     1     -11.786  14.342  69.926  0.00  0.00    +0.058 A 
ATOM      3  C   UNL     1     -11.946  13.013  70.273  0.00  0.00    +0.043 A 
ATOM      4  C   UNL     1     -12.941  12.644  71.170  0.00  0.00    +0.008 A 
ATOM      5  C   UNL     1     -13.330  13.634  72.064  0.00  0.00    +0.004 A 
ATOM      6  C   UNL     1     -12.689  14.865  72.089  0.00  0.00    +0.073 A 
ATOM      7  S   UNL     1     -11.215  11.813  69.153  0.00  0.00    -0.084 S 
ATOM      8  C   UNL     1     -11.187  12.612  67.542  0.00  0.00    +0.043 A 
ATOM      9  C   UNL     1     -11.535  11.797  66.479  0.00  0.00    +0.008 A 
ATOM     10  C   UNL     1     -11.976  12.290  65.275  0.00  0.00    +0.001 A 
ATOM     11  C   UNL     1     -12.540  13.552  65.254  0.00  0.00    +0.001 A 
ATOM     12  C   UNL     1     -12.167  14.407  66.283  0.00  0.00    +0.015 A 
ATOM     13  C   UNL     1     -11.970  15.250  70.964  0.00  0.00    +0.019 A 
ATOM     14  C   UNL     1     -11.685  13.909  67.487  0.00  0.00    +0.058 A 
ENDROOT
BRANCH   6  15
ATOM     15  C   UNL     1     -12.752  15.729  73.310  0.00  0.00    +0.419 C 
ATOM     16  F   UNL     1     -11.904  16.802  73.197  0.00  0.00    -0.166 F 
ATOM     17  F   UNL     1     -12.474  14.991  74.434  0.00  0.00    -0.166 F 
ATOM     18  F   UNL     1     -14.042  16.247  73.342  0.00  0.00    -0.166 F 
ENDBRANCH   6  15
BRANCH   1  19
ATOM     19  C   UNL     1     -11.393  16.203  68.346  0.00  0.00    +0.097 C 
BRANCH  19  20
ATOM     20  C   UNL     1     -10.008  16.677  68.025  0.00  0.00    +0.039 C 
BRANCH  20  21
ATOM     21  C   UNL     1      -9.943  17.657  66.896  0.00  0.00    +0.074 C 
BRANCH  21  26
ATOM     22  C   UNL     1      -5.779  21.036  68.037  0.00  0.00    +0.090 C 
ATOM     23  N   UNL     1      -7.057  20.425  67.773  0.00  0.00    -0.269 NA
ATOM     24  C   UNL     1      -7.366  19.358  68.723  0.00  0.00    +0.090 C 
ATOM     25  C   UNL     1      -8.806  19.009  68.549  0.00  0.00    +0.090 C 
ATOM     26  N   UNL     1      -9.269  18.871  67.226  0.00  0.00    -0.270 NA
ATOM     27  C   UNL     1      -8.546  19.490  66.185  0.00  0.00    +0.090 C 
ATOM     28  C   UNL     1      -7.100  19.772  66.465  0.00  0.00    +0.090 C 
ENDBRANCH  21  26
ENDBRANCH  20  21
ENDBRANCH  19  20
ENDBRANCH   1  19
TORSDOF 5
ENDMDL
MODEL 2
REMARK VINA RESULT:      -7.7      1.945      2.368
REMARK  Name = 
REMARK  5 active torsions:
REMARK  status: ('A' for Active; 'I' for Inactive)
REMARK    1  A    between atoms: N_5  and  C_6
REMARK    2  A    between atoms: C_6  and  C_7
REMARK    3  A    between atoms: C_7  and  C_8
REMARK    4  A    between atoms: C_8  and  N_9
REMARK    5  A    between atoms: C_20  and  C_21
REMARK                            x       y       z     vdW  Elec       q    Type
REMARK                         _______ _______ _______ _____ _____    ______ ____
ROOT
ATOM      1  N   UNL     1     -11.502  14.792  68.567  0.00  0.00    -0.286 N 
ATOM      2  C   UNL     1     -11.813  14.362  69.886  0.00  0.00    +0.058 A 
ATOM      3  C   UNL     1     -11.951  13.030  70.234  0.00  0.00    +0.043 A 
ATOM      4  C   UNL     1     -12.931  12.649  71.143  0.00  0.00    +0.008 A 
ATOM      5  C   UNL     1     -13.323  13.632  72.041  0.00  0.00    +0.004 A 
ATOM      6  C   UNL     1     -12.698  14.871  72.060  0.00  0.00    +0.073 A 
ATOM      7  S   UNL     1     -11.217  11.840  69.105  0.00  0.00    -0.084 S 
ATOM      8  C   UNL     1     -11.218  12.640  67.495  0.00  0.00    +0.043 A 
ATOM      9  C   UNL     1     -11.567  11.821  66.436  0.00  0.00    +0.008 A 
ATOM     10  C   UNL     1     -12.028  12.309  65.237  0.00  0.00    +0.001 A 
ATOM     11  C   UNL     1     -12.609  13.563  65.223  0.00  0.00    +0.001 A 
ATOM     12  C   UNL     1     -12.235  14.423  66.247  0.00  0.00    +0.015 A 
ATOM     13  C   UNL     1     -11.997  15.266  70.927  0.00  0.00    +0.019 A 
ATOM     14  C   UNL     1     -11.733  13.930  67.446  0.00  0.00    +0.058 A 
ENDROOT
BRANCH   6  15
ATOM     15  C   UNL     1     -12.758  15.735  73.281  0.00  0.00    +0.419 C 
ATOM     16  F   UNL     1     -11.825  16.738  73.221  0.00  0.00    -0.166 F 
ATOM     17  F   UNL     1     -12.600  14.974  74.414  0.00  0.00    -0.166 F 
ATOM     18  F   UNL     1     -14.004  16.352  73.249  0.00  0.00    -0.166 F 
ENDBRANCH   6  15
BRANCH   1  19
ATOM     19  C   UNL     1     -11.462  16.228  68.303  0.00  0.00    +0.097 C 
BRANCH  19  20
ATOM     20  C   UNL     1     -10.065  16.758  68.176  0.00  0.00    +0.039 C 
BRANCH  20  21
ATOM     21  C   UNL     1      -9.569  16.844  66.767  0.00  0.00    +0.074 C 
BRANCH  21  26
ATOM     22  C   UNL     1      -4.788  14.477  68.029  0.00  0.00    +0.090 C 
ATOM     23  N   UNL     1      -5.941  15.050  67.383  0.00  0.00    -0.269 NA
ATOM     24  C   UNL     1      -6.142  16.450  67.754  0.00  0.00    +0.090 C 
ATOM     25  C   UNL     1      -7.157  17.018  66.818  0.00  0.00    +0.090 C 
ATOM     26  N   UNL     1      -8.297  16.230  66.566  0.00  0.00    -0.270 NA
ATOM     27  C   UNL     1      -8.227  14.840  66.798  0.00  0.00    +0.090 C 
ATOM     28  C   UNL     1      -7.184  14.388  67.776  0.00  0.00    +0.090 C 
ENDBRANCH  21  26
ENDBRANCH  20  21
ENDBRANCH  19  20
ENDBRANCH   1  19
TORSDOF 5
ENDMDL
MODEL 3
REMARK VINA RESULT:      -7.5      3.859      7.807
REMARK  Name = 
REMARK  5 active torsions:
REMARK  status: ('A' for Active; 'I' for Inactive)
REMARK    1  A    between atoms: N_5  and  C_6
REMARK    2  A    between atoms: C_6  and  C_7
REMARK    3  A    between atoms: C_7  and  C_8
REMARK    4  A    between atoms: C_8  and  N_9
REMARK    5  A    between atoms: C_20  and  C_21
REMARK                            x       y       z     vdW  Elec       q    Type
REMARK                         _______ _______ _______ _____ _____    ______ ____
ROOT
ATOM      1  N   UNL     1     -11.768  11.893  69.532  0.00  0.00    -0.286 N 
ATOM      2  C   UNL     1     -12.048  13.258  69.816  0.00  0.00    +0.058 A 
ATOM      3  C   UNL     1     -12.014  14.253  68.855  0.00  0.00    +0.043 A 
ATOM      4  C   UNL     1     -11.515  15.510  69.175  0.00  0.00    +0.008 A 
ATOM      5  C   UNL     1     -11.604  15.860  70.516  0.00  0.00    +0.004 A 
ATOM      6  C   UNL     1     -12.232  15.026  71.431  0.00  0.00    +0.073 A 
ATOM      7  S   UNL     1     -12.121  13.703  67.148  0.00  0.00    -0.084 S 
ATOM      8  C   UNL     1     -11.451  12.034  67.136  0.00  0.00    +0.043 A 
ATOM      9  C   UNL     1     -10.635  11.740  66.058  0.00  0.00    +0.008 A 
ATOM     10  C   UNL     1      -9.717  10.716  66.076  0.00  0.00    +0.001 A 
ATOM     11  C   UNL     1      -9.249  10.281  67.301  0.00  0.00    +0.001 A 
ATOM     12  C   UNL     1     -10.075  10.519  68.392  0.00  0.00    +0.015 A 
ATOM     13  C   UNL     1     -12.382  13.685  71.097  0.00  0.00    +0.019 A 
ATOM     14  C   UNL     1     -11.028  11.530  68.360  0.00  0.00    +0.058 A 
ENDROOT
BRANCH   6  15
ATOM     15  C   UNL     1     -12.755  15.572  72.723  0.00  0.00    +0.419 C 
ATOM     16  F   UNL     1     -12.607  14.662  73.738  0.00  0.00    -0.166 F 
ATOM     17  F   UNL     1     -14.066  15.956  72.585  0.00  0.00    -0.166 F 
ATOM     18  F   UNL     1     -11.935  16.651  73.038  0.00  0.00    -0.166 F 
ENDBRANCH   6  15
BRANCH   1  19
ATOM     19  C   UNL     1     -11.756  10.947  70.645  0.00  0.00    +0.097 C 
BRANCH  19  20
ATOM     20  C   UNL     1     -12.991  10.101  70.704  0.00  0.00    +0.039 C 
BRANCH  20  21
ATOM     21  C   UNL     1     -13.203   9.417  72.018  0.00  0.00    +0.074 C 
BRANCH  21  26
ATOM     22  C   UNL     1      -9.815   5.275  70.827  0.00  0.00    +0.090 C 
ATOM     23  N   UNL     1     -10.824   6.150  71.369  0.00  0.00    -0.269 NA
ATOM     24  C   UNL     1     -11.793   6.566  70.357  0.00  0.00    +0.090 C 
ATOM     25  C   UNL     1     -12.936   7.207  71.072  0.00  0.00    +0.090 C 
ATOM     26  N   UNL     1     -12.612   8.121  72.094  0.00  0.00    -0.270 NA
ATOM     27  C   UNL     1     -11.336   8.046  72.692  0.00  0.00    +0.090 C 
ATOM     28  C   UNL     1     -10.260   7.403  71.870  0.00  0.00    +0.090 C 
ENDBRANCH  21  26
ENDBRANCH  20  21
ENDBRANCH  19  20
ENDBRANCH   1  19
TORSDOF 5
ENDMDL
MODEL 4
REMARK VINA RESULT:      -7.5      4.890      8.997
REMARK  Name = 
REMARK  5 active torsions:
REMARK  status: ('A' for Active; 'I' for Inactive)
REMARK    1  A    between atoms: N_5  and  C_6
REMARK    2  A    between atoms: C_6  and  C_7
REMARK    3  A    between atoms: C_7  and  C_8
REMARK    4  A    between atoms: C_8  and  N_9
REMARK    5  A    between atoms: C_20  and  C_21
REMARK                            x       y       z     vdW  Elec       q    Type
REMARK                         _______ _______ _______ _____ _____    ______ ____
ROOT
ATOM      1  N   UNL     1     -11.994  12.913  69.821  0.00  0.00    -0.286 N 
ATOM      2  C   UNL     1     -11.550  13.344  68.542  0.00  0.00    +0.058 A 
ATOM      3  C   UNL     1     -11.044  14.609  68.302  0.00  0.00    +0.043 A 
ATOM      4  C   UNL     1     -11.348  15.265  67.115  0.00  0.00    +0.008 A 
ATOM      5  C   UNL     1     -11.653  14.439  66.042  0.00  0.00    +0.004 A 
ATOM      6  C   UNL     1     -11.566  13.058  66.157  0.00  0.00    +0.073 A 
ATOM      7  S   UNL     1     -10.476  15.517  69.746  0.00  0.00    -0.084 S 
ATOM      8  C   UNL     1     -11.434  14.875  71.126  0.00  0.00    +0.043 A 
ATOM      9  C   UNL     1     -11.874  15.830  72.025  0.00  0.00    +0.008 A 
ATOM     10  C   UNL     1     -12.934  15.620  72.875  0.00  0.00    +0.001 A 
ATOM     11  C   UNL     1     -13.873  14.669  72.524  0.00  0.00    +0.001 A 
ATOM     12  C   UNL     1     -13.441  13.670  71.662  0.00  0.00    +0.015 A 
ATOM     13  C   UNL     1     -11.593  12.506  67.432  0.00  0.00    +0.019 A 
ATOM     14  C   UNL     1     -12.346  13.868  70.830  0.00  0.00    +0.058 A 
ENDROOT
BRANCH   6  15
ATOM     15  C   UNL     1     -11.415  12.202  64.938  0.00  0.00    +0.419 C 
ATOM     16  F   UNL     1     -10.476  12.722  64.084  0.00  0.00    -0.166 F 
ATOM     17  F   UNL     1     -12.627  12.044  64.310  0.00  0.00    -0.166 F 
ATOM     18  F   UNL     1     -10.910  10.986  65.388  0.00  0.00    -0.166 F 
ENDBRANCH   6  15
BRANCH   1  19
ATOM     19  C   UNL     1     -12.584  11.582  69.934  0.00  0.00    +0.097 C 
BRANCH  19  20
ATOM     20  C   UNL     1     -11.706  10.616  70.671  0.00  0.00    +0.039 C 
BRANCH  20  21
ATOM     21  C   UNL     1     -12.415   9.829  71.728  0.00  0.00    +0.074 C 
BRANCH  21  26
ATOM     22  C   UNL     1      -9.754   5.169  70.605  0.00  0.00    +0.090 C 
ATOM     23  N   UNL     1     -10.495   6.252  71.200  0.00  0.00    -0.269 NA
ATOM     24  C   UNL     1     -11.735   6.534  70.481  0.00  0.00    +0.090 C 
ATOM     25  C   UNL     1     -12.550   7.446  71.336  0.00  0.00    +0.090 C 
ATOM     26  N   UNL     1     -11.873   8.526  71.936  0.00  0.00    -0.270 NA
ATOM     27  C   UNL     1     -10.473   8.445  72.094  0.00  0.00    +0.090 C 
ATOM     28  C   UNL     1      -9.757   7.515  71.163  0.00  0.00    +0.090 C 
ENDBRANCH  21  26
ENDBRANCH  20  21
ENDBRANCH  19  20
ENDBRANCH   1  19
TORSDOF 5
ENDMDL
MODEL 5
REMARK VINA RESULT:      -7.5      1.522      1.875
REMARK  Name = 
REMARK  5 active torsions:
REMARK  status: ('A' for Active; 'I' for Inactive)
REMARK    1  A    between atoms: N_5  and  C_6
REMARK    2  A    between atoms: C_6  and  C_7
REMARK    3  A    between atoms: C_7  and  C_8
REMARK    4  A    between atoms: C_8  and  N_9
REMARK    5  A    between atoms: C_20  and  C_21
REMARK                            x       y       z     vdW  Elec       q    Type
REMARK                         _______ _______ _______ _____ _____    ______ ____
ROOT
ATOM      1  N   UNL     1     -10.952  13.887  66.991  0.00  0.00    -0.286 N 
ATOM      2  C   UNL     1     -11.139  13.444  68.328  0.00  0.00    +0.058 A 
ATOM      3  C   UNL     1     -10.943  12.133  68.726  0.00  0.00    +0.043 A 
ATOM      4  C   UNL     1     -11.793  11.556  69.661  0.00  0.00    +0.008 A 
ATOM      5  C   UNL     1     -12.411  12.446  70.530  0.00  0.00    +0.004 A 
ATOM      6  C   UNL     1     -12.111  13.801  70.496  0.00  0.00    +0.073 A 
ATOM      7  S   UNL     1      -9.944  11.119  67.628  0.00  0.00    -0.084 S 
ATOM      8  C   UNL     1     -10.151  11.833  65.991  0.00  0.00    +0.043 A 
ATOM      9  C   UNL     1     -10.293  10.913  64.967  0.00  0.00    +0.008 A 
ATOM     10  C   UNL     1     -10.868  11.227  63.758  0.00  0.00    +0.001 A 
ATOM     11  C   UNL     1     -11.740  12.298  63.708  0.00  0.00    +0.001 A 
ATOM     12  C   UNL     1     -11.584  13.261  64.697  0.00  0.00    +0.015 A 
ATOM     13  C   UNL     1     -11.535  14.313  69.340  0.00  0.00    +0.019 A 
ATOM     14  C   UNL     1     -10.969  12.953  65.905  0.00  0.00    +0.058 A 
ENDROOT
BRANCH   6  15
ATOM     15  C   UNL     1     -12.375  14.668  71.687  0.00  0.00    +0.419 C 
ATOM     16  F   UNL     1     -11.203  15.135  72.226  0.00  0.00    -0.166 F 
ATOM     17  F   UNL     1     -13.116  13.987  72.621  0.00  0.00    -0.166 F 
ATOM     18  F   UNL     1     -13.058  15.780  71.203  0.00  0.00    -0.166 F 
ENDBRANCH   6  15
BRANCH   1  19
ATOM     19  C   UNL     1     -11.269  15.278  66.676  0.00  0.00    +0.097 C 
BRANCH  19  20
ATOM     20  C   UNL     1     -10.047  16.125  66.488  0.00  0.00    +0.039 C 
BRANCH  20  21
ATOM     21  C   UNL     1     -10.314  17.598  66.514  0.00  0.00    +0.074 C 
BRANCH  21  26
ATOM     22  C   UNL     1      -6.275  19.996  69.340  0.00  0.00    +0.090 C 
ATOM     23  N   UNL     1      -7.521  19.453  68.862  0.00  0.00    -0.269 NA
ATOM     24  C   UNL     1      -7.440  18.014  68.622  0.00  0.00    +0.090 C 
ATOM     25  C   UNL     1      -8.834  17.516  68.425  0.00  0.00    +0.090 C 
ATOM     26  N   UNL     1      -9.668  18.281  67.587  0.00  0.00    -0.270 NA
ATOM     27  C   UNL     1      -9.347  19.637  67.365  0.00  0.00    +0.090 C 
ATOM     28  C   UNL     1      -7.911  20.017  67.570  0.00  0.00    +0.090 C 
ENDBRANCH  21  26
ENDBRANCH  20  21
ENDBRANCH  19  20
ENDBRANCH   1  19
TORSDOF 5
ENDMDL
MODEL 6
REMARK VINA RESULT:      -7.3      5.145      8.872
REMARK  Name = 
REMARK  5 active torsions:
REMARK  status: ('A' for Active; 'I' for Inactive)
REMARK    1  A    between atoms: N_5  and  C_6
REMARK    2  A    between atoms: C_6  and  C_7
REMARK    3  A    between atoms: C_7  and  C_8
REMARK    4  A    between atoms: C_8  and  N_9
REMARK    5  A    between atoms: C_20  and  C_21
REMARK                            x       y       z     vdW  Elec       q    Type
REMARK                         _______ _______ _______ _____ _____    ______ ____
ROOT
ATOM      1  N   UNL     1     -11.768  12.425  69.537  0.00  0.00    -0.286 N 
ATOM      2  C   UNL     1     -11.520  12.990  68.256  0.00  0.00    +0.058 A 
ATOM      3  C   UNL     1     -11.329  14.344  68.050  0.00  0.00    +0.043 A 
ATOM      4  C   UNL     1     -11.853  14.954  66.916  0.00  0.00    +0.008 A 
ATOM      5  C   UNL     1     -12.036  14.118  65.823  0.00  0.00    +0.004 A 
ATOM      6  C   UNL     1     -11.633  12.790  65.865  0.00  0.00    +0.073 A 
ATOM      7  S   UNL     1     -10.884  15.307  69.501  0.00  0.00    -0.084 S 
ATOM      8  C   UNL     1     -11.577  14.417  70.901  0.00  0.00    +0.043 A 
ATOM      9  C   UNL     1     -12.159  15.215  71.870  0.00  0.00    +0.008 A 
ATOM     10  C   UNL     1     -13.084  14.741  72.769  0.00  0.00    +0.001 A 
ATOM     11  C   UNL     1     -13.807  13.613  72.427  0.00  0.00    +0.001 A 
ATOM     12  C   UNL     1     -13.221  12.769  71.493  0.00  0.00    +0.015 A 
ATOM     13  C   UNL     1     -11.449  12.203  67.111  0.00  0.00    +0.019 A 
ATOM     14  C   UNL     1     -12.257  13.240  70.610  0.00  0.00    +0.058 A 
ENDROOT
BRANCH   6  15
ATOM     15  C   UNL     1     -11.376  12.033  64.599  0.00  0.00    +0.419 C 
ATOM     16  F   UNL     1     -10.917  10.769  64.866  0.00  0.00    -0.166 F 
ATOM     17  F   UNL     1     -10.499  12.723  63.798  0.00  0.00    -0.166 F 
ATOM     18  F   UNL     1     -12.617  11.883  63.990  0.00  0.00    -0.166 F 
ENDBRANCH   6  15
BRANCH   1  19
ATOM     19  C   UNL     1     -12.034  10.992  69.618  0.00  0.00    +0.097 C 
BRANCH  19  20
ATOM     20  C   UNL     1     -10.966  10.242  70.355  0.00  0.00    +0.039 C 
BRANCH  20  21
ATOM     21  C   UNL     1     -10.017   9.499  69.469  0.00  0.00    +0.074 C 
BRANCH  21  26
ATOM     22  C   UNL     1     -10.461   4.992  66.381  0.00  0.00    +0.090 C 
ATOM     23  N   UNL     1     -10.676   6.190  67.150  0.00  0.00    -0.269 NA
ATOM     24  C   UNL     1      -9.939   7.331  66.611  0.00  0.00    +0.090 C 
ATOM     25  C   UNL     1     -10.459   8.557  67.286  0.00  0.00    +0.090 C 
ATOM     26  N   UNL     1     -10.638   8.485  68.681  0.00  0.00    -0.270 NA
ATOM     27  C   UNL     1     -10.774   7.217  69.283  0.00  0.00    +0.090 C 
ATOM     28  C   UNL     1     -10.192   6.062  68.525  0.00  0.00    +0.090 C 
ENDBRANCH  21  26
ENDBRANCH  20  21
ENDBRANCH  19  20
ENDBRANCH   1  19
TORSDOF 5
ENDMDL
MODEL 7
REMARK VINA RESULT:      -7.0      3.824      5.622
REMARK  Name = 
REMARK  5 active torsions:
REMARK  status: ('A' for Active; 'I' for Inactive)
REMARK    1  A    between atoms: N_5  and  C_6
REMARK    2  A    between atoms: C_6  and  C_7
REMARK    3  A    between atoms: C_7  and  C_8
REMARK    4  A    between atoms: C_8  and  N_9
REMARK    5  A    between atoms: C_20  and  C_21
REMARK                            x       y       z     vdW  Elec       q    Type
REMARK                         _______ _______ _______ _____ _____    ______ ____
ROOT
ATOM      1  N   UNL     1     -12.147  13.196  69.327  0.00  0.00    -0.286 N 
ATOM      2  C   UNL     1     -11.838  11.809  69.323  0.00  0.00    +0.058 A 
ATOM      3  C   UNL     1     -12.024  10.988  70.421  0.00  0.00    +0.043 A 
ATOM      4  C   UNL     1     -11.097   9.992  70.708  0.00  0.00    +0.008 A 
ATOM      5  C   UNL     1     -10.377   9.521  69.619  0.00  0.00    +0.004 A 
ATOM      6  C   UNL     1     -10.648   9.972  68.334  0.00  0.00    +0.073 A 
ATOM      7  S   UNL     1     -13.149  11.601  71.681  0.00  0.00    -0.084 S 
ATOM      8  C   UNL     1     -13.090  13.393  71.549  0.00  0.00    +0.043 A 
ATOM      9  C   UNL     1     -13.072  14.067  72.757  0.00  0.00    +0.008 A 
ATOM     10  C   UNL     1     -12.614  15.357  72.884  0.00  0.00    +0.001 A 
ATOM     11  C   UNL     1     -11.727  15.830  71.936  0.00  0.00    +0.001 A 
ATOM     12  C   UNL     1     -11.761  15.203  70.697  0.00  0.00    +0.015 A 
ATOM     13  C   UNL     1     -11.324  11.178  68.194  0.00  0.00    +0.019 A 
ATOM     14  C   UNL     1     -12.260  13.913  70.563  0.00  0.00    +0.058 A 
ENDROOT
BRANCH   6  15
ATOM     15  C   UNL     1     -10.247   9.159  67.143  0.00  0.00    +0.419 C 
ATOM     16  F   UNL     1     -10.319   9.902  65.992  0.00  0.00    -0.166 F 
ATOM     17  F   UNL     1     -11.018   8.026  67.053  0.00  0.00    -0.166 F 
ATOM     18  F   UNL     1      -8.903   8.849  67.330  0.00  0.00    -0.166 F 
ENDBRANCH   6  15
BRANCH   1  19
ATOM     19  C   UNL     1     -11.832  13.976  68.134  0.00  0.00    +0.097 C 
BRANCH  19  20
ATOM     20  C   UNL     1     -10.358  14.142  67.919  0.00  0.00    +0.039 C 
BRANCH  20  21
ATOM     21  C   UNL     1      -9.939  14.092  66.483  0.00  0.00    +0.074 C 
BRANCH  21  26
ATOM     22  C   UNL     1      -8.735  19.439  66.400  0.00  0.00    +0.090 C 
ATOM     23  N   UNL     1      -8.919  18.039  66.114  0.00  0.00    -0.269 NA
ATOM     24  C   UNL     1     -10.325  17.645  66.170  0.00  0.00    +0.090 C 
ATOM     25  C   UNL     1     -10.429  16.279  65.576  0.00  0.00    +0.090 C 
ATOM     26  N   UNL     1      -9.462  15.338  65.979  0.00  0.00    -0.270 NA
ATOM     27  C   UNL     1      -8.241  15.804  66.508  0.00  0.00    +0.090 C 
ATOM     28  C   UNL     1      -8.261  17.181  67.100  0.00  0.00    +0.090 C 
ENDBRANCH  21  26
ENDBRANCH  20  21
ENDBRANCH  19  20
ENDBRANCH   1  19
TORSDOF 5
ENDMDL
MODEL 8
REMARK VINA RESULT:      -6.9      3.370      4.724
REMARK  Name = 
REMARK  5 active torsions:
REMARK  status: ('A' for Active; 'I' for Inactive)
REMARK    1  A    between atoms: N_5  and  C_6
REMARK    2  A    between atoms: C_6  and  C_7
REMARK    3  A    between atoms: C_7  and  C_8
REMARK    4  A    between atoms: C_8  and  N_9
REMARK    5  A    between atoms: C_20  and  C_21
REMARK                            x       y       z     vdW  Elec       q    Type
REMARK                         _______ _______ _______ _____ _____    ______ ____
ROOT
ATOM      1  N   UNL     1     -10.969  11.826  67.513  0.00  0.00    -0.286 N 
ATOM      2  C   UNL     1     -10.546  10.631  68.157  0.00  0.00    +0.058 A 
ATOM      3  C   UNL     1      -9.866   9.619  67.503  0.00  0.00    +0.043 A 
ATOM      4  C   UNL     1     -10.139   8.290  67.806  0.00  0.00    +0.008 A 
ATOM      5  C   UNL     1     -10.637   8.063  69.082  0.00  0.00    +0.004 A 
ATOM      6  C   UNL     1     -10.758   9.101  69.996  0.00  0.00    +0.073 A 
ATOM      7  S   UNL     1      -9.072  10.075  65.957  0.00  0.00    -0.084 S 
ATOM      8  C   UNL     1     -10.028  11.455  65.313  0.00  0.00    +0.043 A 
ATOM      9  C   UNL     1     -10.256  11.422  63.949  0.00  0.00    +0.008 A 
ATOM     10  C   UNL     1     -11.279  12.116  63.347  0.00  0.00    +0.001 A 
ATOM     11  C   UNL     1     -12.376  12.458  64.116  0.00  0.00    +0.001 A 
ATOM     12  C   UNL     1     -12.161  12.547  65.485  0.00  0.00    +0.015 A 
ATOM     13  C   UNL     1     -10.790  10.401  69.507  0.00  0.00    +0.019 A 
ATOM     14  C   UNL     1     -11.103  11.877  66.088  0.00  0.00    +0.058 A 
ENDROOT
BRANCH   6  15
ATOM     15  C   UNL     1     -10.821   8.817  71.465  0.00  0.00    +0.419 C 
ATOM     16  F   UNL     1     -11.821   9.540  72.064  0.00  0.00    -0.166 F 
ATOM     17  F   UNL     1      -9.606   9.066  72.054  0.00  0.00    -0.166 F 
ATOM     18  F   UNL     1     -11.180   7.477  71.577  0.00  0.00    -0.166 F 
ENDBRANCH   6  15
BRANCH   1  19
ATOM     19  C   UNL     1     -11.751  12.785  68.288  0.00  0.00    +0.097 C 
BRANCH  19  20
ATOM     20  C   UNL     1     -10.958  13.991  68.693  0.00  0.00    +0.039 C 
BRANCH  20  21
ATOM     21  C   UNL     1     -11.632  15.294  68.400  0.00  0.00    +0.074 C 
BRANCH  21  26
ATOM     22  C   UNL     1      -7.173  17.514  66.111  0.00  0.00    +0.090 C 
ATOM     23  N   UNL     1      -8.505  17.164  66.533  0.00  0.00    -0.269 NA
ATOM     24  C   UNL     1      -8.673  17.279  67.981  0.00  0.00    +0.090 C 
ATOM     25  C   UNL     1     -10.134  17.189  68.269  0.00  0.00    +0.090 C 
ATOM     26  N   UNL     1     -10.851  16.179  67.598  0.00  0.00    -0.270 NA
ATOM     27  C   UNL     1     -10.315  15.641  66.409  0.00  0.00    +0.090 C 
ATOM     28  C   UNL     1      -8.831  15.768  66.240  0.00  0.00    +0.090 C 
ENDBRANCH  21  26
ENDBRANCH  20  21
ENDBRANCH  19  20
ENDBRANCH   1  19
TORSDOF 5
ENDMDL
MODEL 9
REMARK VINA RESULT:      -6.8      4.596      6.735
REMARK  Name = 
REMARK  5 active torsions:
REMARK  status: ('A' for Active; 'I' for Inactive)
REMARK    1  A    between atoms: N_5  and  C_6
REMARK    2  A    between atoms: C_6  and  C_7
REMARK    3  A    between atoms: C_7  and  C_8
REMARK    4  A    between atoms: C_8  and  N_9
REMARK    5  A    between atoms: C_20  and  C_21
REMARK                            x       y       z     vdW  Elec       q    Type
REMARK                         _______ _______ _______ _____ _____    ______ ____
ROOT
ATOM      1  N   UNL     1     -12.058  13.063  69.526  0.00  0.00    -0.286 N 
ATOM      2  C   UNL     1     -11.778  11.672  69.614  0.00  0.00    +0.058 A 
ATOM      3  C   UNL     1     -12.088  10.906  70.724  0.00  0.00    +0.043 A 
ATOM      4  C   UNL     1     -11.215   9.910  71.146  0.00  0.00    +0.008 A 
ATOM      5  C   UNL     1     -10.401   9.377  70.155  0.00  0.00    +0.004 A 
ATOM      6  C   UNL     1     -10.536   9.771  68.831  0.00  0.00    +0.073 A 
ATOM      7  S   UNL     1     -13.318  11.595  71.838  0.00  0.00    -0.084 S 
ATOM      8  C   UNL     1     -13.210  13.378  71.633  0.00  0.00    +0.043 A 
ATOM      9  C   UNL     1     -13.296  14.107  72.806  0.00  0.00    +0.008 A 
ATOM     10  C   UNL     1     -12.826  15.394  72.919  0.00  0.00    +0.001 A 
ATOM     11  C   UNL     1     -11.841  15.808  72.043  0.00  0.00    +0.001 A 
ATOM     12  C   UNL     1     -11.766  15.125  70.836  0.00  0.00    +0.015 A 
ATOM     13  C   UNL     1     -11.170  10.980  68.572  0.00  0.00    +0.019 A 
ATOM     14  C   UNL     1     -12.276  13.838  70.711  0.00  0.00    +0.058 A 
ENDROOT
BRANCH   6  15
ATOM     15  C   UNL     1     -10.036   8.897  67.723  0.00  0.00    +0.419 C 
ATOM     16  F   UNL     1     -11.067   8.488  66.916  0.00  0.00    -0.166 F 
ATOM     17  F   UNL     1      -9.347   7.825  68.232  0.00  0.00    -0.166 F 
ATOM     18  F   UNL     1      -9.219   9.707  66.940  0.00  0.00    -0.166 F 
ENDBRANCH   6  15
BRANCH   1  19
ATOM     19  C   UNL     1     -11.611  13.781  68.336  0.00  0.00    +0.097 C 
BRANCH  19  20
ATOM     20  C   UNL     1     -10.118  13.857  68.228  0.00  0.00    +0.039 C 
BRANCH  20  21
ATOM     21  C   UNL     1      -9.629  14.675  67.074  0.00  0.00    +0.074 C 
BRANCH  21  26
ATOM     22  C   UNL     1     -12.459  11.971  63.236  0.00  0.00    +0.090 C 
ATOM     23  N   UNL     1     -11.497  12.727  63.996  0.00  0.00    -0.269 NA
ATOM     24  C   UNL     1     -10.979  11.974  65.136  0.00  0.00    +0.090 C 
ATOM     25  C   UNL     1      -9.797  12.718  65.662  0.00  0.00    +0.090 C 
ATOM     26  N   UNL     1      -9.936  14.113  65.799  0.00  0.00    -0.270 NA
ATOM     27  C   UNL     1     -10.927  14.774  65.044  0.00  0.00    +0.090 C 
ATOM     28  C   UNL     1     -12.080  13.930  64.590  0.00  0.00    +0.090 C 
ENDBRANCH  21  26
ENDBRANCH  20  21
ENDBRANCH  19  20
ENDBRANCH   1  19
TORSDOF 5
ENDMDL
