MODEL 1
REMARK VINA RESULT:      -7.4      0.000      0.000
REMARK  Name = 
REMARK  7 active torsions:
REMARK  status: ('A' for Active; 'I' for Inactive)
REMARK    1  A    between atoms: N_2  and  C_3
REMARK    2  A    between atoms: C_3  and  C_5
REMARK    3  A    between atoms: C_10  and  O_11
REMARK    4  A    between atoms: O_11  and  C_12
REMARK    5  A    between atoms: C_15  and  O_16
REMARK    6  A    between atoms: O_16  and  C_17
REMARK    7  A    between atoms: C_23  and  N_24
REMARK                            x       y       z     vdW  Elec       q    Type
REMARK                         _______ _______ _______ _____ _____    ______ ____
ROOT
ATOM      1  C   UNL     1     -10.270  16.755  67.542  0.00  0.00    +0.168 C 
ATOM      2  C   UNL     1      -9.265  17.077  66.200  0.00  0.00    +0.123 C 
ATOM      3  N   UNL     1     -10.241  16.396  65.189  0.00  0.00    -0.130 NA
ATOM      4  C   UNL     1     -10.061  18.500  66.124  0.00  0.00    +0.043 C 
ATOM      5  C   UNL     1      -9.515  19.345  67.418  0.00  0.00    +0.123 C 
ATOM      6  N   UNL     1     -10.522  18.864  68.520  0.00  0.00    -0.130 NA
ATOM      7  C   UNL     1      -8.223  18.274  67.743  0.00  0.00    +0.168 C 
ATOM      8  C   UNL     1      -9.023  17.090  68.669  0.00  0.00    +0.209 C 
ATOM      9  O   UNL     1      -8.095  16.039  68.123  0.00  0.00    -0.218 OA
ENDROOT
BRANCH   1  10
ATOM     10  O   UNL     1     -10.182  15.248  67.535  0.00  0.00    -0.328 OA
BRANCH  10  13
ATOM     11  C   UNL     1     -11.123  13.668  66.295  0.00  0.00    +0.134 C 
ATOM     12  O   UNL     1     -12.268  14.405  66.899  0.00  0.00    -0.331 OA
ATOM     13  C   UNL     1     -11.671  15.345  67.924  0.00  0.00    +0.253 C 
ATOM     14  C   UNL     1     -11.665  14.087  69.133  0.00  0.00    +0.148 C 
ATOM     15  N   UNL     1     -10.885  14.941  70.182  0.00  0.00    -0.128 NA
ATOM     16  C   UNL     1     -10.341  13.283  68.632  0.00  0.00    +0.027 C 
ATOM     17  C   UNL     1     -11.016  12.554  67.502  0.00  0.00    +0.033 C 
BRANCH  11  18
ATOM     18  C   UNL     1     -12.173  12.634  65.407  0.00  0.00    +0.100 C 
ATOM     19  C   UNL     1     -10.970  11.706  64.816  0.00  0.00    +0.021 C 
BRANCH  18  21
ATOM     20  C   UNL     1     -12.280  13.594  63.843  0.00  0.00    +0.107 C 
ATOM     21  N   UNL     1     -12.263  13.504  64.109  0.00  0.00    -0.215 NA
ENDBRANCH  18  21
ENDBRANCH  11  18
ENDBRANCH  10  13
ENDBRANCH   1  10
BRANCH   7  22
ATOM     22  O   UNL     1      -7.813  19.116  68.928  0.00  0.00    -0.327 OA
BRANCH  22  23
ATOM     23  C   UNL     1      -6.379  19.012  68.394  0.00  0.00    +0.268 C 
ATOM     24  C   UNL     1      -6.090  20.670  68.783  0.00  0.00    +0.226 C 
ATOM     25  O   UNL     1      -6.036  20.538  70.270  0.00  0.00    -0.216 OA
ATOM     26  C   UNL     1      -4.398  20.632  68.501  0.00  0.00    +0.138 C 
ATOM     27  C   UNL     1      -3.960  19.466  69.537  0.00  0.00    +0.171 C 
ATOM     28  O   UNL     1      -2.679  19.261  68.970  0.00  0.00    -0.222 OA
ATOM     29  C   UNL     1      -3.673  20.059  70.867  0.00  0.00    +0.037 C 
ATOM     30  C   UNL     1      -4.623  18.237  69.381  0.00  0.00    +0.176 C 
ATOM     31  O   UNL     1      -5.912  18.420  69.723  0.00  0.00    -0.326 OA
BRANCH  26  32
ATOM     32  N   UNL     1      -4.444  19.650  67.271  0.00  0.00    -0.213 NA
ATOM     33  C   UNL     1      -3.876  20.464  66.216  0.00  0.00    +0.108 C 
ENDBRANCH  26  32
ENDBRANCH  22  23
ENDBRANCH   7  22
TORSDOF 7
ENDMDL
MODEL 2
REMARK VINA RESULT:      -7.3      2.128      8.478
REMARK  Name = 
REMARK  7 active torsions:
REMARK  status: ('A' for Active; 'I' for Inactive)
REMARK    1  A    between atoms: N_2  and  C_3
REMARK    2  A    between atoms: C_3  and  C_5
REMARK    3  A    between atoms: C_10  and  O_11
REMARK    4  A    between atoms: O_11  and  C_12
REMARK    5  A    between atoms: C_15  and  O_16
REMARK    6  A    between atoms: O_16  and  C_17
REMARK    7  A    between atoms: C_23  and  N_24
REMARK                            x       y       z     vdW  Elec       q    Type
REMARK                         _______ _______ _______ _____ _____    ______ ____
ROOT
ATOM      1  C   UNL     1      -9.155  17.127  68.266  0.00  0.00    +0.168 C 
ATOM      2  C   UNL     1      -8.003  15.872  68.157  0.00  0.00    +0.123 C 
ATOM      3  N   UNL     1      -6.954  16.635  69.026  0.00  0.00    -0.130 NA
ATOM      4  C   UNL     1      -8.755  15.259  69.471  0.00  0.00    +0.043 C 
ATOM      5  C   UNL     1     -10.194  14.717  68.904  0.00  0.00    +0.123 C 
ATOM      6  N   UNL     1     -11.063  16.016  69.037  0.00  0.00    -0.130 NA
ATOM      7  C   UNL     1      -9.751  14.853  67.259  0.00  0.00    +0.168 C 
ATOM      8  C   UNL     1     -10.093  16.497  66.977  0.00  0.00    +0.209 C 
ATOM      9  O   UNL     1      -8.968  16.559  65.980  0.00  0.00    -0.218 OA
ENDROOT
BRANCH   1  10
ATOM     10  O   UNL     1      -8.401  18.193  67.508  0.00  0.00    -0.328 OA
BRANCH  10  13
ATOM     11  C   UNL     1      -6.817  19.516  68.321  0.00  0.00    +0.134 C 
ATOM     12  O   UNL     1      -8.036  19.861  69.106  0.00  0.00    -0.331 OA
ATOM     13  C   UNL     1      -9.187  19.144  68.434  0.00  0.00    +0.253 C 
ATOM     14  C   UNL     1      -9.386  20.447  67.292  0.00  0.00    +0.148 C 
ATOM     15  N   UNL     1     -10.453  19.690  66.439  0.00  0.00    -0.128 NA
ATOM     16  C   UNL     1      -8.156  20.077  66.292  0.00  0.00    +0.027 C 
ATOM     17  C   UNL     1      -7.068  20.653  67.158  0.00  0.00    +0.033 C 
BRANCH  11  18
ATOM     18  C   UNL     1      -5.849  20.619  69.219  0.00  0.00    +0.100 C 
ATOM     19  C   UNL     1      -4.498  20.340  68.350  0.00  0.00    +0.021 C 
BRANCH  18  21
ATOM     20  C   UNL     1      -5.314  19.516  70.589  0.00  0.00    +0.107 C 
ATOM     21  N   UNL     1      -5.427  19.634  70.360  0.00  0.00    -0.215 NA
ENDBRANCH  18  21
ENDBRANCH  11  18
ENDBRANCH  10  13
ENDBRANCH   1  10
BRANCH   7  22
ATOM     22  O   UNL     1     -11.116  14.359  66.842  0.00  0.00    -0.327 OA
BRANCH  22  23
ATOM     23  C   UNL     1     -10.382  13.284  66.031  0.00  0.00    +0.268 C 
ATOM     24  C   UNL     1     -11.623  12.136  66.386  0.00  0.00    +0.226 C 
ATOM     25  O   UNL     1     -12.700  12.707  65.522  0.00  0.00    -0.216 OA
ATOM     26  C   UNL     1     -11.080  10.934  65.288  0.00  0.00    +0.138 C 
ATOM     27  C   UNL     1     -11.120  11.771  63.902  0.00  0.00    +0.171 C 
ATOM     28  O   UNL     1     -10.327  10.853  63.172  0.00  0.00    -0.222 OA
ATOM     29  C   UNL     1     -12.465  11.654  63.284  0.00  0.00    +0.037 C 
ATOM     30  C   UNL     1     -10.383  12.967  63.895  0.00  0.00    +0.176 C 
ATOM     31  O   UNL     1     -10.989  13.826  64.737  0.00  0.00    -0.326 OA
BRANCH  26  32
ATOM     32  N   UNL     1      -9.539  11.181  65.501  0.00  0.00    -0.213 NA
ATOM     33  C   UNL     1      -9.095   9.894  65.994  0.00  0.00    +0.108 C 
ENDBRANCH  26  32
ENDBRANCH  22  23
ENDBRANCH   7  22
TORSDOF 7
ENDMDL
MODEL 3
REMARK VINA RESULT:      -7.0      2.119      8.578
REMARK  Name = 
REMARK  7 active torsions:
REMARK  status: ('A' for Active; 'I' for Inactive)
REMARK    1  A    between atoms: N_2  and  C_3
REMARK    2  A    between atoms: C_3  and  C_5
REMARK    3  A    between atoms: C_10  and  O_11
REMARK    4  A    between atoms: O_11  and  C_12
REMARK    5  A    between atoms: C_15  and  O_16
REMARK    6  A    between atoms: O_16  and  C_17
REMARK    7  A    between atoms: C_23  and  N_24
REMARK                            x       y       z     vdW  Elec       q    Type
REMARK                         _______ _______ _______ _____ _____    ______ ____
ROOT
ATOM      1  C   UNL     1      -8.304  17.657  68.076  0.00  0.00    +0.168 C 
ATOM      2  C   UNL     1      -7.779  16.078  68.454  0.00  0.00    +0.123 C 
ATOM      3  N   UNL     1      -6.783  16.573  69.551  0.00  0.00    -0.130 NA
ATOM      4  C   UNL     1      -9.035  16.062  69.497  0.00  0.00    +0.043 C 
ATOM      5  C   UNL     1     -10.362  15.972  68.539  0.00  0.00    +0.123 C 
ATOM      6  N   UNL     1     -10.628  17.494  68.273  0.00  0.00    -0.130 NA
ATOM      7  C   UNL     1      -9.481  15.597  67.123  0.00  0.00    +0.168 C 
ATOM      8  C   UNL     1      -9.037  17.158  66.609  0.00  0.00    +0.209 C 
ATOM      9  O   UNL     1      -7.763  16.603  66.032  0.00  0.00    -0.218 OA
ENDROOT
BRANCH   1  10
ATOM     10  O   UNL     1      -7.009  18.199  67.519  0.00  0.00    -0.328 OA
BRANCH  10  13
ATOM     11  C   UNL     1      -5.560  19.173  68.887  0.00  0.00    +0.134 C 
ATOM     12  O   UNL     1      -6.750  20.069  68.899  0.00  0.00    -0.331 OA
ATOM     13  C   UNL     1      -7.671  19.562  67.810  0.00  0.00    +0.253 C 
ATOM     14  C   UNL     1      -6.817  20.484  66.601  0.00  0.00    +0.148 C 
ATOM     15  N   UNL     1      -7.606  19.864  65.405  0.00  0.00    -0.128 NA
ATOM     16  C   UNL     1      -5.534  19.500  66.414  0.00  0.00    +0.027 C 
ATOM     17  C   UNL     1      -4.805  19.952  67.650  0.00  0.00    +0.033 C 
BRANCH  11  18
ATOM     18  C   UNL     1      -4.732  20.151  70.036  0.00  0.00    +0.100 C 
ATOM     19  C   UNL     1      -3.375  19.248  70.018  0.00  0.00    +0.021 C 
BRANCH  18  21
ATOM     20  C   UNL     1      -5.356  19.393  71.590  0.00  0.00    +0.107 C 
ATOM     21  N   UNL     1      -5.285  19.457  71.326  0.00  0.00    -0.215 NA
ENDBRANCH  18  21
ENDBRANCH  11  18
ENDBRANCH  10  13
ENDBRANCH   1  10
BRANCH   7  22
ATOM     22  O   UNL     1     -10.764  15.554  66.328  0.00  0.00    -0.327 OA
BRANCH  22  23
ATOM     23  C   UNL     1     -10.492  14.057  66.135  0.00  0.00    +0.268 C 
ATOM     24  C   UNL     1     -12.181  13.713  66.239  0.00  0.00    +0.226 C 
ATOM     25  O   UNL     1     -12.599  14.276  64.920  0.00  0.00    -0.216 OA
ATOM     26  C   UNL     1     -12.064  12.073  65.747  0.00  0.00    +0.138 C 
ATOM     27  C   UNL     1     -11.360  12.257  64.299  0.00  0.00    +0.171 C 
ATOM     28  O   UNL     1     -10.979  10.901  64.165  0.00  0.00    -0.222 OA
ATOM     29  C   UNL     1     -12.400  12.443  63.255  0.00  0.00    +0.037 C 
ATOM     30  C   UNL     1     -10.151  12.972  64.300  0.00  0.00    +0.176 C 
ATOM     31  O   UNL     1     -10.429  14.250  64.620  0.00  0.00    -0.326 OA
BRANCH  26  32
ATOM     32  N   UNL     1     -10.701  11.765  66.473  0.00  0.00    -0.213 NA
ATOM     33  C   UNL     1     -11.086  10.723  67.401  0.00  0.00    +0.108 C 
ENDBRANCH  26  32
ENDBRANCH  22  23
ENDBRANCH   7  22
TORSDOF 7
ENDMDL
MODEL 4
REMARK VINA RESULT:      -6.8      2.043      8.421
REMARK  Name = 
REMARK  7 active torsions:
REMARK  status: ('A' for Active; 'I' for Inactive)
REMARK    1  A    between atoms: N_2  and  C_3
REMARK    2  A    between atoms: C_3  and  C_5
REMARK    3  A    between atoms: C_10  and  O_11
REMARK    4  A    between atoms: O_11  and  C_12
REMARK    5  A    between atoms: C_15  and  O_16
REMARK    6  A    between atoms: O_16  and  C_17
REMARK    7  A    between atoms: C_23  and  N_24
REMARK                            x       y       z     vdW  Elec       q    Type
REMARK                         _______ _______ _______ _____ _____    ______ ____
ROOT
ATOM      1  C   UNL     1      -7.883  18.824  66.966  0.00  0.00    +0.168 C 
ATOM      2  C   UNL     1      -8.212  18.173  68.510  0.00  0.00    +0.123 C 
ATOM      3  N   UNL     1      -7.480  19.335  69.256  0.00  0.00    -0.130 NA
ATOM      4  C   UNL     1      -9.607  19.016  68.413  0.00  0.00    +0.043 C 
ATOM      5  C   UNL     1     -10.493  18.213  67.292  0.00  0.00    +0.123 C 
ATOM      6  N   UNL     1     -10.001  18.915  65.979  0.00  0.00    -0.130 NA
ATOM      7  C   UNL     1      -9.471  16.843  67.268  0.00  0.00    +0.168 C 
ATOM      8  C   UNL     1      -8.280  17.361  66.168  0.00  0.00    +0.209 C 
ATOM      9  O   UNL     1      -7.249  16.549  66.904  0.00  0.00    -0.218 OA
ENDROOT
BRANCH   1  10
ATOM     10  O   UNL     1      -6.380  18.686  66.977  0.00  0.00    -0.328 OA
BRANCH  10  13
ATOM     11  C   UNL     1      -4.727  19.721  68.035  0.00  0.00    +0.134 C 
ATOM     12  O   UNL     1      -5.438  20.802  67.296  0.00  0.00    -0.331 OA
ATOM     13  C   UNL     1      -6.431  20.111  66.388  0.00  0.00    +0.253 C 
ATOM     14  C   UNL     1      -5.212  19.884  65.161  0.00  0.00    +0.148 C 
ATOM     15  N   UNL     1      -6.128  19.005  64.251  0.00  0.00    -0.128 NA
ATOM     16  C   UNL     1      -4.445  18.609  65.819  0.00  0.00    +0.027 C 
ATOM     17  C   UNL     1      -3.656  19.401  66.827  0.00  0.00    +0.033 C 
BRANCH  11  18
ATOM     18  C   UNL     1      -3.627  20.838  68.743  0.00  0.00    +0.100 C 
ATOM     19  C   UNL     1      -2.680  19.686  69.402  0.00  0.00    +0.021 C 
BRANCH  18  21
ATOM     20  C   UNL     1      -4.493  21.159  70.331  0.00  0.00    +0.107 C 
ATOM     21  N   UNL     1      -4.414  21.082  70.073  0.00  0.00    -0.215 NA
ENDBRANCH  18  21
ENDBRANCH  11  18
ENDBRANCH  10  13
ENDBRANCH   1  10
BRANCH   7  22
ATOM     22  O   UNL     1     -10.348  16.197  66.222  0.00  0.00    -0.327 OA
BRANCH  22  23
ATOM     23  C   UNL     1     -10.265  14.920  67.066  0.00  0.00    +0.268 C 
ATOM     24  C   UNL     1     -11.879  14.494  66.624  0.00  0.00    +0.226 C 
ATOM     25  O   UNL     1     -11.623  14.120  65.200  0.00  0.00    -0.216 OA
ATOM     26  C   UNL     1     -11.836  12.908  67.276  0.00  0.00    +0.138 C 
ATOM     27  C   UNL     1     -10.580  12.294  66.456  0.00  0.00    +0.171 C 
ATOM     28  O   UNL     1     -10.401  11.177  67.306  0.00  0.00    -0.222 OA
ATOM     29  C   UNL     1     -11.055  11.702  65.180  0.00  0.00    +0.037 C 
ATOM     30  C   UNL     1      -9.380  13.018  66.556  0.00  0.00    +0.176 C 
ATOM     31  O   UNL     1      -9.556  14.194  65.923  0.00  0.00    -0.326 OA
BRANCH  26  32
ATOM     32  N   UNL     1     -10.961  13.257  68.537  0.00  0.00    -0.213 NA
ATOM     33  C   UNL     1     -11.841  12.883  69.625  0.00  0.00    +0.108 C 
ENDBRANCH  26  32
ENDBRANCH  22  23
ENDBRANCH   7  22
TORSDOF 7
ENDMDL
MODEL 5
REMARK VINA RESULT:      -6.3      3.461      8.316
REMARK  Name = 
REMARK  7 active torsions:
REMARK  status: ('A' for Active; 'I' for Inactive)
REMARK    1  A    between atoms: N_2  and  C_3
REMARK    2  A    between atoms: C_3  and  C_5
REMARK    3  A    between atoms: C_10  and  O_11
REMARK    4  A    between atoms: O_11  and  C_12
REMARK    5  A    between atoms: C_15  and  O_16
REMARK    6  A    between atoms: O_16  and  C_17
REMARK    7  A    between atoms: C_23  and  N_24
REMARK                            x       y       z     vdW  Elec       q    Type
REMARK                         _______ _______ _______ _____ _____    ______ ____
ROOT
ATOM      1  C   UNL     1      -9.569  15.069  66.977  0.00  0.00    +0.168 C 
ATOM      2  C   UNL     1     -10.719  14.862  68.222  0.00  0.00    +0.123 C 
ATOM      3  N   UNL     1     -11.162  16.360  68.186  0.00  0.00    -0.130 NA
ATOM      4  C   UNL     1     -11.742  14.455  67.015  0.00  0.00    +0.043 C 
ATOM      5  C   UNL     1     -11.220  12.983  66.517  0.00  0.00    +0.123 C 
ATOM      6  N   UNL     1     -10.156  13.403  65.445  0.00  0.00    -0.130 NA
ATOM      7  C   UNL     1     -10.183  12.747  67.854  0.00  0.00    +0.168 C 
ATOM      8  C   UNL     1      -8.795  13.579  67.325  0.00  0.00    +0.209 C 
ATOM      9  O   UNL     1      -8.476  13.949  68.748  0.00  0.00    -0.218 OA
ENDROOT
BRANCH   1  10
ATOM     10  O   UNL     1      -8.621  15.999  67.697  0.00  0.00    -0.328 OA
BRANCH  10  13
ATOM     11  C   UNL     1      -8.957  18.159  67.319  0.00  0.00    +0.134 C 
ATOM     12  O   UNL     1      -8.490  17.615  66.012  0.00  0.00    -0.331 OA
ATOM     13  C   UNL     1      -8.038  16.197  66.283  0.00  0.00    +0.253 C 
ATOM     14  C   UNL     1      -6.458  16.751  66.772  0.00  0.00    +0.148 C 
ATOM     15  N   UNL     1      -5.984  15.340  67.245  0.00  0.00    -0.128 NA
ATOM     16  C   UNL     1      -6.837  17.254  68.273  0.00  0.00    +0.027 C 
ATOM     17  C   UNL     1      -7.453  18.560  67.853  0.00  0.00    +0.033 C 
BRANCH  11  18
ATOM     18  C   UNL     1      -9.167  19.735  66.662  0.00  0.00    +0.100 C 
ATOM     19  C   UNL     1      -9.876  20.338  68.000  0.00  0.00    +0.021 C 
BRANCH  18  21
ATOM     20  C   UNL     1     -10.781  19.501  65.815  0.00  0.00    +0.107 C 
ATOM     21  N   UNL     1     -10.533  19.474  65.945  0.00  0.00    -0.215 NA
ENDBRANCH  18  21
ENDBRANCH  11  18
ENDBRANCH  10  13
ENDBRANCH   1  10
BRANCH   7  22
ATOM     22  O   UNL     1      -9.757  11.409  67.297  0.00  0.00    -0.327 OA
BRANCH  22  23
ATOM     23  C   UNL     1      -9.862  10.877  68.732  0.00  0.00    +0.268 C 
ATOM     24  C   UNL     1     -10.678   9.462  68.171  0.00  0.00    +0.226 C 
ATOM     25  O   UNL     1      -9.517   8.787  67.517  0.00  0.00    -0.216 OA
ATOM     26  C   UNL     1     -10.611   8.611  69.660  0.00  0.00    +0.138 C 
ATOM     27  C   UNL     1      -9.009   8.582  69.903  0.00  0.00    +0.171 C 
ATOM     28  O   UNL     1      -9.091   8.223  71.270  0.00  0.00    -0.222 OA
ATOM     29  C   UNL     1      -8.424   7.384  69.251  0.00  0.00    +0.037 C 
ATOM     30  C   UNL     1      -8.374   9.835  69.899  0.00  0.00    +0.176 C 
ATOM     31  O   UNL     1      -8.440  10.324  68.646  0.00  0.00    -0.326 OA
BRANCH  26  32
ATOM     32  N   UNL     1     -10.824   9.862  70.591  0.00  0.00    -0.213 NA
ATOM     33  C   UNL     1     -12.021   9.494  71.318  0.00  0.00    +0.108 C 
ENDBRANCH  26  32
ENDBRANCH  22  23
ENDBRANCH   7  22
TORSDOF 7
ENDMDL
MODEL 6
REMARK VINA RESULT:      -6.3      3.205      5.066
REMARK  Name = 
REMARK  7 active torsions:
REMARK  status: ('A' for Active; 'I' for Inactive)
REMARK    1  A    between atoms: N_2  and  C_3
REMARK    2  A    between atoms: C_3  and  C_5
REMARK    3  A    between atoms: C_10  and  O_11
REMARK    4  A    between atoms: O_11  and  C_12
REMARK    5  A    between atoms: C_15  and  O_16
REMARK    6  A    between atoms: O_16  and  C_17
REMARK    7  A    between atoms: C_23  and  N_24
REMARK                            x       y       z     vdW  Elec       q    Type
REMARK                         _______ _______ _______ _____ _____    ______ ____
ROOT
ATOM      1  C   UNL     1     -10.725  12.092  66.803  0.00  0.00    +0.168 C 
ATOM      2  C   UNL     1      -9.416  12.517  65.793  0.00  0.00    +0.123 C 
ATOM      3  N   UNL     1      -9.230  11.058  65.266  0.00  0.00    -0.130 NA
ATOM      4  C   UNL     1     -10.564  12.850  64.682  0.00  0.00    +0.043 C 
ATOM      5  C   UNL     1     -11.283  14.217  65.233  0.00  0.00    +0.123 C 
ATOM      6  N   UNL     1     -12.388  13.606  66.162  0.00  0.00    -0.130 NA
ATOM      7  C   UNL     1     -10.083  14.535  66.408  0.00  0.00    +0.168 C 
ATOM      8  C   UNL     1     -10.631  13.556  67.688  0.00  0.00    +0.209 C 
ATOM      9  O   UNL     1      -9.209  13.332  68.124  0.00  0.00    -0.218 OA
ENDROOT
BRANCH   1  10
ATOM     10  O   UNL     1      -9.987  11.189  67.763  0.00  0.00    -0.328 OA
BRANCH  10  13
ATOM     11  C   UNL     1      -9.311   9.085  67.587  0.00  0.00    +0.134 C 
ATOM     12  O   UNL     1     -10.789   9.021  67.414  0.00  0.00    -0.331 OA
ATOM     13  C   UNL     1     -11.313  10.401  67.748  0.00  0.00    +0.253 C 
ATOM     14  C   UNL     1     -11.358  10.016  69.449  0.00  0.00    +0.148 C 
ATOM     15  N   UNL     1     -11.722  11.470  69.886  0.00  0.00    -0.128 NA
ATOM     16  C   UNL     1      -9.773  10.191  69.775  0.00  0.00    +0.027 C 
ATOM     17  C   UNL     1      -9.347   8.860  69.217  0.00  0.00    +0.033 C 
BRANCH  11  18
ATOM     18  C   UNL     1      -9.143   7.390  67.337  0.00  0.00    +0.100 C 
ATOM     19  C   UNL     1      -7.581   7.346  67.799  0.00  0.00    +0.021 C 
BRANCH  18  21
ATOM     20  C   UNL     1      -8.684   7.395  65.558  0.00  0.00    +0.107 C 
ATOM     21  N   UNL     1      -8.787   7.446  65.815  0.00  0.00    -0.215 NA
ENDBRANCH  18  21
ENDBRANCH  11  18
ENDBRANCH  10  13
ENDBRANCH   1  10
BRANCH   7  22
ATOM     22  O   UNL     1     -10.834  15.768  66.851  0.00  0.00    -0.327 OA
BRANCH  22  23
ATOM     23  C   UNL     1      -9.473  16.473  66.898  0.00  0.00    +0.268 C 
ATOM     24  C   UNL     1     -10.187  17.940  66.332  0.00  0.00    +0.226 C 
ATOM     25  O   UNL     1     -10.936  18.309  67.570  0.00  0.00    -0.216 OA
ATOM     26  C   UNL     1      -8.813  18.931  66.608  0.00  0.00    +0.138 C 
ATOM     27  C   UNL     1      -8.600  18.691  68.196  0.00  0.00    +0.171 C 
ATOM     28  O   UNL     1      -7.286  19.215  68.233  0.00  0.00    -0.222 OA
ATOM     29  C   UNL     1      -9.401  19.677  68.965  0.00  0.00    +0.037 C 
ATOM     30  C   UNL     1      -8.463  17.350  68.593  0.00  0.00    +0.176 C 
ATOM     31  O   UNL     1      -9.647  16.740  68.392  0.00  0.00    -0.326 OA
BRANCH  26  32
ATOM     32  N   UNL     1      -7.734  17.856  66.206  0.00  0.00    -0.213 NA
ATOM     33  C   UNL     1      -6.836  18.630  65.376  0.00  0.00    +0.108 C 
ENDBRANCH  26  32
ENDBRANCH  22  23
ENDBRANCH   7  22
TORSDOF 7
ENDMDL
MODEL 7
REMARK VINA RESULT:      -6.3      2.182      8.571
REMARK  Name = 
REMARK  7 active torsions:
REMARK  status: ('A' for Active; 'I' for Inactive)
REMARK    1  A    between atoms: N_2  and  C_3
REMARK    2  A    between atoms: C_3  and  C_5
REMARK    3  A    between atoms: C_10  and  O_11
REMARK    4  A    between atoms: O_11  and  C_12
REMARK    5  A    between atoms: C_15  and  O_16
REMARK    6  A    between atoms: O_16  and  C_17
REMARK    7  A    between atoms: C_23  and  N_24
REMARK                            x       y       z     vdW  Elec       q    Type
REMARK                         _______ _______ _______ _____ _____    ______ ____
ROOT
ATOM      1  C   UNL     1      -7.683  17.169  68.116  0.00  0.00    +0.168 C 
ATOM      2  C   UNL     1      -6.759  15.801  67.685  0.00  0.00    +0.123 C 
ATOM      3  N   UNL     1      -5.447  16.376  68.309  0.00  0.00    -0.130 NA
ATOM      4  C   UNL     1      -7.257  15.189  69.114  0.00  0.00    +0.043 C 
ATOM      5  C   UNL     1      -8.846  14.857  68.885  0.00  0.00    +0.123 C 
ATOM      6  N   UNL     1      -9.487  16.234  69.275  0.00  0.00    -0.130 NA
ATOM      7  C   UNL     1      -8.783  15.055  67.189  0.00  0.00    +0.168 C 
ATOM      8  C   UNL     1      -8.967  16.743  67.064  0.00  0.00    +0.209 C 
ATOM      9  O   UNL     1      -8.106  16.744  65.830  0.00  0.00    -0.218 OA
ENDROOT
BRANCH   1  10
ATOM     10  O   UNL     1      -6.995  18.192  67.244  0.00  0.00    -0.328 OA
BRANCH  10  13
ATOM     11  C   UNL     1      -5.123  19.298  67.682  0.00  0.00    +0.134 C 
ATOM     12  O   UNL     1      -6.069  19.717  68.754  0.00  0.00    -0.331 OA
ATOM     13  C   UNL     1      -7.422  19.161  68.365  0.00  0.00    +0.253 C 
ATOM     14  C   UNL     1      -7.743  20.543  67.351  0.00  0.00    +0.148 C 
ATOM     15  N   UNL     1      -9.063  19.949  66.764  0.00  0.00    -0.128 NA
ATOM     16  C   UNL     1      -6.842  20.110  66.066  0.00  0.00    +0.027 C 
ATOM     17  C   UNL     1      -5.519  20.521  66.655  0.00  0.00    +0.033 C 
BRANCH  11  18
ATOM     18  C   UNL     1      -3.848  20.243  68.348  0.00  0.00    +0.100 C 
ATOM     19  C   UNL     1      -2.812  19.939  67.126  0.00  0.00    +0.021 C 
BRANCH  18  21
ATOM     20  C   UNL     1      -3.171  18.963  69.480  0.00  0.00    +0.107 C 
ATOM     21  N   UNL     1      -3.234  19.134  69.265  0.00  0.00    -0.215 NA
ENDBRANCH  18  21
ENDBRANCH  11  18
ENDBRANCH  10  13
ENDBRANCH   1  10
BRANCH   7  22
ATOM     22  O   UNL     1     -10.259  14.751  67.090  0.00  0.00    -0.327 OA
BRANCH  22  23
ATOM     23  C   UNL     1      -9.860  13.507  66.286  0.00  0.00    +0.268 C 
ATOM     24  C   UNL     1     -11.210  12.636  66.920  0.00  0.00    +0.226 C 
ATOM     25  O   UNL     1     -12.294  13.339  66.169  0.00  0.00    -0.216 OA
ATOM     26  C   UNL     1     -11.063  11.285  65.873  0.00  0.00    +0.138 C 
ATOM     27  C   UNL     1     -11.174  12.022  64.434  0.00  0.00    +0.171 C 
ATOM     28  O   UNL     1     -10.678  10.927  63.687  0.00  0.00    -0.222 OA
ATOM     29  C   UNL     1     -12.599  12.117  64.028  0.00  0.00    +0.037 C 
ATOM     30  C   UNL     1     -10.251  13.057  64.211  0.00  0.00    +0.176 C 
ATOM     31  O   UNL     1     -10.558  14.067  65.048  0.00  0.00    -0.326 OA
BRANCH  26  32
ATOM     32  N   UNL     1      -9.489  11.254  65.840  0.00  0.00    -0.213 NA
ATOM     33  C   UNL     1      -9.204   9.945  66.387  0.00  0.00    +0.108 C 
ENDBRANCH  26  32
ENDBRANCH  22  23
ENDBRANCH   7  22
TORSDOF 7
ENDMDL
MODEL 8
REMARK VINA RESULT:      -6.1      1.691      2.040
REMARK  Name = 
REMARK  7 active torsions:
REMARK  status: ('A' for Active; 'I' for Inactive)
REMARK    1  A    between atoms: N_2  and  C_3
REMARK    2  A    between atoms: C_3  and  C_5
REMARK    3  A    between atoms: C_10  and  O_11
REMARK    4  A    between atoms: O_11  and  C_12
REMARK    5  A    between atoms: C_15  and  O_16
REMARK    6  A    between atoms: O_16  and  C_17
REMARK    7  A    between atoms: C_23  and  N_24
REMARK                            x       y       z     vdW  Elec       q    Type
REMARK                         _______ _______ _______ _____ _____    ______ ____
ROOT
ATOM      1  C   UNL     1      -9.444  14.938  67.332  0.00  0.00    +0.168 C 
ATOM      2  C   UNL     1      -9.082  16.064  66.101  0.00  0.00    +0.123 C 
ATOM      3  N   UNL     1     -10.142  15.469  65.120  0.00  0.00    -0.130 NA
ATOM      4  C   UNL     1     -10.189  17.011  66.838  0.00  0.00    +0.043 C 
ATOM      5  C   UNL     1      -9.462  17.485  68.229  0.00  0.00    +0.123 C 
ATOM      6  N   UNL     1      -9.867  16.306  69.181  0.00  0.00    -0.130 NA
ATOM      7  C   UNL     1      -7.911  16.939  67.763  0.00  0.00    +0.168 C 
ATOM      8  C   UNL     1      -8.012  15.297  68.203  0.00  0.00    +0.209 C 
ATOM      9  O   UNL     1      -7.096  14.937  67.064  0.00  0.00    -0.218 OA
ENDROOT
BRANCH   1  10
ATOM     10  O   UNL     1      -8.984  13.682  66.632  0.00  0.00    -0.328 OA
BRANCH  10  13
ATOM     11  C   UNL     1     -10.123  12.452  65.179  0.00  0.00    +0.134 C 
ATOM     12  O   UNL     1     -10.918  12.382  66.437  0.00  0.00    -0.331 OA
ATOM     13  C   UNL     1     -10.064  13.019  67.512  0.00  0.00    +0.253 C 
ATOM     14  C   UNL     1      -9.226  11.516  67.795  0.00  0.00    +0.148 C 
ATOM     15  N   UNL     1      -8.191  12.147  68.779  0.00  0.00    -0.128 NA
ATOM     16  C   UNL     1      -8.216  11.563  66.519  0.00  0.00    +0.027 C 
ATOM     17  C   UNL     1      -9.226  11.110  65.500  0.00  0.00    +0.033 C 
BRANCH  11  18
ATOM     18  C   UNL     1     -11.274  11.503  64.322  0.00  0.00    +0.100 C 
ATOM     19  C   UNL     1     -10.260  11.148  63.095  0.00  0.00    +0.021 C 
BRANCH  18  21
ATOM     20  C   UNL     1     -12.142  12.847  63.418  0.00  0.00    +0.107 C 
ATOM     21  N   UNL     1     -11.958  12.673  63.539  0.00  0.00    -0.215 NA
ENDBRANCH  18  21
ENDBRANCH  11  18
ENDBRANCH  10  13
ENDBRANCH   1  10
BRANCH   7  22
ATOM     22  O   UNL     1      -7.344  17.397  69.085  0.00  0.00    -0.327 OA
BRANCH  22  23
ATOM     23  C   UNL     1      -6.345  18.227  68.269  0.00  0.00    +0.268 C 
ATOM     24  C   UNL     1      -6.338  19.455  69.483  0.00  0.00    +0.226 C 
ATOM     25  O   UNL     1      -5.572  18.719  70.533  0.00  0.00    -0.216 OA
ATOM     26  C   UNL     1      -5.020  20.344  68.837  0.00  0.00    +0.138 C 
ATOM     27  C   UNL     1      -3.874  19.198  68.834  0.00  0.00    +0.171 C 
ATOM     28  O   UNL     1      -2.996  19.894  67.970  0.00  0.00    -0.222 OA
ATOM     29  C   UNL     1      -3.165  19.194  70.139  0.00  0.00    +0.037 C 
ATOM     30  C   UNL     1      -4.199  18.019  68.144  0.00  0.00    +0.176 C 
ATOM     31  O   UNL     1      -5.184  17.403  68.825  0.00  0.00    -0.326 OA
BRANCH  26  32
ATOM     32  N   UNL     1      -5.379  20.119  67.321  0.00  0.00    -0.213 NA
ATOM     33  C   UNL     1      -5.560  21.477  66.851  0.00  0.00    +0.108 C 
ENDBRANCH  26  32
ENDBRANCH  22  23
ENDBRANCH   7  22
TORSDOF 7
ENDMDL
MODEL 9
REMARK VINA RESULT:      -6.0      6.025     10.137
REMARK  Name = 
REMARK  7 active torsions:
REMARK  status: ('A' for Active; 'I' for Inactive)
REMARK    1  A    between atoms: N_2  and  C_3
REMARK    2  A    between atoms: C_3  and  C_5
REMARK    3  A    between atoms: C_10  and  O_11
REMARK    4  A    between atoms: O_11  and  C_12
REMARK    5  A    between atoms: C_15  and  O_16
REMARK    6  A    between atoms: O_16  and  C_17
REMARK    7  A    between atoms: C_23  and  N_24
REMARK                            x       y       z     vdW  Elec       q    Type
REMARK                         _______ _______ _______ _____ _____    ______ ____
ROOT
ATOM      1  C   UNL     1      -9.464  10.544  67.852  0.00  0.00    +0.168 C 
ATOM      2  C   UNL     1     -10.059   8.996  67.447  0.00  0.00    +0.123 C 
ATOM      3  N   UNL     1     -10.143   9.326  65.922  0.00  0.00    -0.130 NA
ATOM      4  C   UNL     1      -8.485   8.574  67.343  0.00  0.00    +0.043 C 
ATOM      5  C   UNL     1      -7.962   8.558  68.897  0.00  0.00    +0.123 C 
ATOM      6  N   UNL     1      -7.528  10.055  69.069  0.00  0.00    -0.130 NA
ATOM      7  C   UNL     1      -9.531   8.649  69.569  0.00  0.00    +0.168 C 
ATOM      8  C   UNL     1      -9.794  10.331  69.520  0.00  0.00    +0.209 C 
ATOM      9  O   UNL     1     -11.266  10.093  69.313  0.00  0.00    -0.218 OA
ENDROOT
BRANCH   1  10
ATOM     10  O   UNL     1     -10.678  11.359  67.474  0.00  0.00    -0.328 OA
BRANCH  10  13
ATOM     11  C   UNL     1     -11.068  12.029  65.397  0.00  0.00    +0.134 C 
ATOM     12  O   UNL     1      -9.812  12.729  65.789  0.00  0.00    -0.331 OA
ATOM     13  C   UNL     1      -9.633  12.476  67.270  0.00  0.00    +0.253 C 
ATOM     14  C   UNL     1     -10.670  13.821  67.667  0.00  0.00    +0.148 C 
ATOM     15  N   UNL     1     -10.680  13.510  69.197  0.00  0.00    -0.128 NA
ATOM     16  C   UNL     1     -12.106  13.104  67.394  0.00  0.00    +0.027 C 
ATOM     17  C   UNL     1     -12.068  13.237  65.896  0.00  0.00    +0.033 C 
BRANCH  11  18
ATOM     18  C   UNL     1     -11.021  12.697  63.811  0.00  0.00    +0.100 C 
ATOM     19  C   UNL     1     -12.360  11.918  63.304  0.00  0.00    +0.021 C 
BRANCH  18  21
ATOM     20  C   UNL     1      -9.909  11.479  62.999  0.00  0.00    +0.107 C 
ATOM     21  N   UNL     1     -10.056  11.640  63.177  0.00  0.00    -0.215 NA
ENDBRANCH  18  21
ENDBRANCH  11  18
ENDBRANCH  10  13
ENDBRANCH   1  10
BRANCH   7  22
ATOM     22  O   UNL     1      -8.944   8.646  70.960  0.00  0.00    -0.327 OA
BRANCH  22  23
ATOM     23  C   UNL     1      -9.732   7.350  71.194  0.00  0.00    +0.268 C 
ATOM     24  C   UNL     1      -8.389   6.658  72.031  0.00  0.00    +0.226 C 
ATOM     25  O   UNL     1      -8.467   7.473  73.280  0.00  0.00    -0.216 OA
ATOM     26  C   UNL     1      -9.229   5.282  72.617  0.00  0.00    +0.138 C 
ATOM     27  C   UNL     1     -10.419   6.004  73.447  0.00  0.00    +0.171 C 
ATOM     28  O   UNL     1     -11.225   4.845  73.555  0.00  0.00    -0.222 OA
ATOM     29  C   UNL     1      -9.974   6.262  74.840  0.00  0.00    +0.037 C 
ATOM     30  C   UNL     1     -11.198   6.917  72.718  0.00  0.00    +0.176 C 
ATOM     31  O   UNL     1     -10.416   7.970  72.411  0.00  0.00    -0.326 OA
BRANCH  26  32
ATOM     32  N   UNL     1     -10.126   5.062  71.342  0.00  0.00    -0.213 NA
ATOM     33  C   UNL     1      -9.727   3.736  70.921  0.00  0.00    +0.108 C 
ENDBRANCH  26  32
ENDBRANCH  22  23
ENDBRANCH   7  22
TORSDOF 7
ENDMDL
