MODEL 1
REMARK VINA RESULT:      -4.7      0.000      0.000
REMARK  Name = 
REMARK  5 active torsions:
REMARK  status: ('A' for Active; 'I' for Inactive)
REMARK    1  A    between atoms: C_2  and  C_3
REMARK    2  A    between atoms: C_3  and  C_4
REMARK    3  A    between atoms: C_4  and  C_5
REMARK    4  A    between atoms: C_5  and  C_7
REMARK    5  A    between atoms: C_5  and  C_10
REMARK                            x       y       z     vdW  Elec       q    Type
REMARK                         _______ _______ _______ _____ _____    ______ ____
ROOT
ATOM      1  C   UNL     1     -13.090  15.210  72.079  0.00  0.00    +0.231 C 
ATOM      2  N   UNL     1     -14.294  15.902  72.471  0.00  0.00    -0.117 NA
ENDROOT
BRANCH   1   3
ATOM      3  C   UNL     1     -12.011  15.574  73.063  0.00  0.00    +0.345 C 
ATOM      4  F   UNL     1     -12.114  14.782  74.200  0.00  0.00    -0.196 F 
ATOM      5  F   UNL     1     -12.097  16.883  73.485  0.00  0.00    -0.196 F 
ENDBRANCH   1   3
BRANCH   1   6
ATOM      6  C   UNL     1     -13.323  13.735  72.160  0.00  0.00    +0.385 C 
ATOM      7  O   UNL     1     -12.723  12.943  71.201  0.00  0.00    -0.244 OA
ATOM      8  O   UNL     1     -14.463  13.362  72.566  0.00  0.00    -0.244 OA
ENDBRANCH   1   6
BRANCH   1   9
ATOM      9  C   UNL     1     -12.720  15.517  70.652  0.00  0.00    +0.036 C 
BRANCH   9  10
ATOM     10  C   UNL     1     -11.335  16.067  70.494  0.00  0.00    +0.023 C 
BRANCH  10  12
ATOM     11  N   UNL     1     -10.988  17.220  68.431  0.00  0.00    -0.131 NA
ATOM     12  C   UNL     1     -10.798  15.945  69.094  0.00  0.00    +0.109 C 
ENDBRANCH  10  12
ENDBRANCH   9  10
ENDBRANCH   1   9
TORSDOF 5
ENDMDL
MODEL 2
REMARK VINA RESULT:      -4.6      6.579      7.731
REMARK  Name = 
REMARK  5 active torsions:
REMARK  status: ('A' for Active; 'I' for Inactive)
REMARK    1  A    between atoms: C_2  and  C_3
REMARK    2  A    between atoms: C_3  and  C_4
REMARK    3  A    between atoms: C_4  and  C_5
REMARK    4  A    between atoms: C_5  and  C_7
REMARK    5  A    between atoms: C_5  and  C_10
REMARK                            x       y       z     vdW  Elec       q    Type
REMARK                         _______ _______ _______ _____ _____    ______ ____
ROOT
ATOM      1  C   UNL     1     -11.658  14.208  65.095  0.00  0.00    +0.231 C 
ATOM      2  N   UNL     1     -13.090  14.083  65.219  0.00  0.00    -0.117 NA
ENDROOT
BRANCH   1   3
ATOM      3  C   UNL     1     -11.179  13.110  64.185  0.00  0.00    +0.345 C 
ATOM      4  F   UNL     1     -12.001  13.022  63.068  0.00  0.00    -0.196 F 
ATOM      5  F   UNL     1     -11.200  11.872  64.789  0.00  0.00    -0.196 F 
ENDBRANCH   1   3
BRANCH   1   6
ATOM      6  C   UNL     1     -11.333  15.522  64.460  0.00  0.00    +0.385 C 
ATOM      7  O   UNL     1     -10.426  16.335  65.108  0.00  0.00    -0.244 OA
ATOM      8  O   UNL     1     -12.278  16.106  63.849  0.00  0.00    -0.244 OA
ENDBRANCH   1   6
BRANCH   1   9
ATOM      9  C   UNL     1     -10.987  14.196  66.443  0.00  0.00    +0.036 C 
BRANCH   9  10
ATOM     10  C   UNL     1     -11.869  13.705  67.551  0.00  0.00    +0.023 C 
BRANCH  10  12
ATOM     11  N   UNL     1     -12.006  11.345  67.891  0.00  0.00    -0.131 NA
ATOM     12  C   UNL     1     -11.292  12.537  68.304  0.00  0.00    +0.109 C 
ENDBRANCH  10  12
ENDBRANCH   9  10
ENDBRANCH   1   9
TORSDOF 5
ENDMDL
MODEL 3
REMARK VINA RESULT:      -4.6      6.548      7.115
REMARK  Name = 
REMARK  5 active torsions:
REMARK  status: ('A' for Active; 'I' for Inactive)
REMARK    1  A    between atoms: C_2  and  C_3
REMARK    2  A    between atoms: C_3  and  C_4
REMARK    3  A    between atoms: C_4  and  C_5
REMARK    4  A    between atoms: C_5  and  C_7
REMARK    5  A    between atoms: C_5  and  C_10
REMARK                            x       y       z     vdW  Elec       q    Type
REMARK                         _______ _______ _______ _____ _____    ______ ____
ROOT
ATOM      1  C   UNL     1     -11.786  13.322  65.106  0.00  0.00    +0.231 C 
ATOM      2  N   UNL     1     -13.081  13.936  65.266  0.00  0.00    -0.117 NA
ENDROOT
BRANCH   1   3
ATOM      3  C   UNL     1     -11.420  12.676  66.416  0.00  0.00    +0.345 C 
ATOM      4  F   UNL     1     -11.553  11.296  66.322  0.00  0.00    -0.196 F 
ATOM      5  F   UNL     1     -12.233  13.080  67.452  0.00  0.00    -0.196 F 
ENDBRANCH   1   3
BRANCH   1   6
ATOM      6  C   UNL     1     -11.874  12.254  64.063  0.00  0.00    +0.385 C 
ATOM      7  O   UNL     1     -10.762  12.042  63.273  0.00  0.00    -0.244 OA
ATOM      8  O   UNL     1     -13.001  12.098  63.504  0.00  0.00    -0.244 OA
ENDBRANCH   1   6
BRANCH   1   9
ATOM      9  C   UNL     1     -10.761  14.316  64.629  0.00  0.00    +0.036 C 
BRANCH   9  10
ATOM     10  C   UNL     1     -10.128  15.106  65.733  0.00  0.00    +0.023 C 
BRANCH  10  12
ATOM     11  N   UNL     1     -11.155  16.831  64.440  0.00  0.00    -0.131 NA
ATOM     12  C   UNL     1     -10.453  16.574  65.682  0.00  0.00    +0.109 C 
ENDBRANCH  10  12
ENDBRANCH   9  10
ENDBRANCH   1   9
TORSDOF 5
ENDMDL
MODEL 4
REMARK VINA RESULT:      -4.6      2.449      2.594
REMARK  Name = 
REMARK  5 active torsions:
REMARK  status: ('A' for Active; 'I' for Inactive)
REMARK    1  A    between atoms: C_2  and  C_3
REMARK    2  A    between atoms: C_3  and  C_4
REMARK    3  A    between atoms: C_4  and  C_5
REMARK    4  A    between atoms: C_5  and  C_7
REMARK    5  A    between atoms: C_5  and  C_10
REMARK                            x       y       z     vdW  Elec       q    Type
REMARK                         _______ _______ _______ _____ _____    ______ ____
ROOT
ATOM      1  C   UNL     1     -12.735  14.931  71.413  0.00  0.00    +0.231 C 
ATOM      2  N   UNL     1     -12.785  15.929  70.372  0.00  0.00    -0.117 NA
ENDROOT
BRANCH   1   3
ATOM      3  C   UNL     1     -11.772  15.412  72.464  0.00  0.00    +0.345 C 
ATOM      4  F   UNL     1     -12.124  14.898  73.706  0.00  0.00    -0.196 F 
ATOM      5  F   UNL     1     -11.766  16.784  72.592  0.00  0.00    -0.196 F 
ENDBRANCH   1   3
BRANCH   1   6
ATOM      6  C   UNL     1     -14.088  14.804  72.036  0.00  0.00    +0.385 C 
ATOM      7  O   UNL     1     -14.498  13.541  72.415  0.00  0.00    -0.244 OA
ATOM      8  O   UNL     1     -14.989  15.582  71.602  0.00  0.00    -0.244 OA
ENDBRANCH   1   6
BRANCH   1   9
ATOM      9  C   UNL     1     -12.379  13.577  70.858  0.00  0.00    +0.036 C 
BRANCH   9  10
ATOM     10  C   UNL     1     -12.008  13.598  69.407  0.00  0.00    +0.023 C 
BRANCH  10  12
ATOM     11  N   UNL     1     -12.089  11.438  68.392  0.00  0.00    -0.131 NA
ATOM     12  C   UNL     1     -11.189  12.411  68.980  0.00  0.00    +0.109 C 
ENDBRANCH  10  12
ENDBRANCH   9  10
ENDBRANCH   1   9
TORSDOF 5
ENDMDL
MODEL 5
REMARK VINA RESULT:      -4.5      6.029      7.338
REMARK  Name = 
REMARK  5 active torsions:
REMARK  status: ('A' for Active; 'I' for Inactive)
REMARK    1  A    between atoms: C_2  and  C_3
REMARK    2  A    between atoms: C_3  and  C_4
REMARK    3  A    between atoms: C_4  and  C_5
REMARK    4  A    between atoms: C_5  and  C_7
REMARK    5  A    between atoms: C_5  and  C_10
REMARK                            x       y       z     vdW  Elec       q    Type
REMARK                         _______ _______ _______ _____ _____    ______ ____
ROOT
ATOM      1  C   UNL     1     -11.551  14.385  65.262  0.00  0.00    +0.231 C 
ATOM      2  N   UNL     1     -12.980  14.190  65.291  0.00  0.00    -0.117 NA
ENDROOT
BRANCH   1   3
ATOM      3  C   UNL     1     -10.953  13.268  64.450  0.00  0.00    +0.345 C 
ATOM      4  F   UNL     1     -11.740  13.014  63.333  0.00  0.00    -0.196 F 
ATOM      5  F   UNL     1     -10.870  12.086  65.151  0.00  0.00    -0.196 F 
ENDBRANCH   1   3
BRANCH   1   6
ATOM      6  C   UNL     1     -11.246  15.680  64.580  0.00  0.00    +0.385 C 
ATOM      7  O   UNL     1     -10.458  16.587  65.259  0.00  0.00    -0.244 OA
ATOM      8  O   UNL     1     -12.159  16.165  63.847  0.00  0.00    -0.244 OA
ENDBRANCH   1   6
BRANCH   1   9
ATOM      9  C   UNL     1     -10.981  14.477  66.652  0.00  0.00    +0.036 C 
BRANCH   9  10
ATOM     10  C   UNL     1     -11.942  14.069  67.727  0.00  0.00    +0.023 C 
BRANCH  10  12
ATOM     11  N   UNL     1     -11.744  16.230  68.725  0.00  0.00    -0.131 NA
ATOM     12  C   UNL     1     -11.745  14.810  69.021  0.00  0.00    +0.109 C 
ENDBRANCH  10  12
ENDBRANCH   9  10
ENDBRANCH   1   9
TORSDOF 5
ENDMDL
MODEL 6
REMARK VINA RESULT:      -4.5      2.367      2.656
REMARK  Name = 
REMARK  5 active torsions:
REMARK  status: ('A' for Active; 'I' for Inactive)
REMARK    1  A    between atoms: C_2  and  C_3
REMARK    2  A    between atoms: C_3  and  C_4
REMARK    3  A    between atoms: C_4  and  C_5
REMARK    4  A    between atoms: C_5  and  C_7
REMARK    5  A    between atoms: C_5  and  C_10
REMARK                            x       y       z     vdW  Elec       q    Type
REMARK                         _______ _______ _______ _____ _____    ______ ____
ROOT
ATOM      1  C   UNL     1     -13.159  14.653  72.289  0.00  0.00    +0.231 C 
ATOM      2  N   UNL     1     -13.556  13.355  72.776  0.00  0.00    -0.117 NA
ENDROOT
BRANCH   1   3
ATOM      3  C   UNL     1     -14.385  15.334  71.744  0.00  0.00    +0.345 C 
ATOM      4  F   UNL     1     -14.854  16.275  72.655  0.00  0.00    -0.196 F 
ATOM      5  F   UNL     1     -15.423  14.457  71.515  0.00  0.00    -0.196 F 
ENDBRANCH   1   3
BRANCH   1   6
ATOM      6  C   UNL     1     -12.635  15.467  73.429  0.00  0.00    +0.385 C 
ATOM      7  O   UNL     1     -11.899  16.593  73.122  0.00  0.00    -0.244 OA
ATOM      8  O   UNL     1     -12.284  14.830  74.467  0.00  0.00    -0.244 OA
ENDBRANCH   1   6
BRANCH   1   9
ATOM      9  C   UNL     1     -12.045  14.545  71.281  0.00  0.00    +0.036 C 
BRANCH   9  10
ATOM     10  C   UNL     1     -12.233  15.418  70.078  0.00  0.00    +0.023 C 
BRANCH  10  12
ATOM     11  N   UNL     1     -11.235  16.963  68.555  0.00  0.00    -0.131 NA
ATOM     12  C   UNL     1     -10.939  15.864  69.454  0.00  0.00    +0.109 C 
ENDBRANCH  10  12
ENDBRANCH   9  10
ENDBRANCH   1   9
TORSDOF 5
ENDMDL
MODEL 7
REMARK VINA RESULT:      -4.4      7.198      7.876
REMARK  Name = 
REMARK  5 active torsions:
REMARK  status: ('A' for Active; 'I' for Inactive)
REMARK    1  A    between atoms: C_2  and  C_3
REMARK    2  A    between atoms: C_3  and  C_4
REMARK    3  A    between atoms: C_4  and  C_5
REMARK    4  A    between atoms: C_5  and  C_7
REMARK    5  A    between atoms: C_5  and  C_10
REMARK                            x       y       z     vdW  Elec       q    Type
REMARK                         _______ _______ _______ _____ _____    ______ ____
ROOT
ATOM      1  C   UNL     1     -11.589  12.921  64.739  0.00  0.00    +0.231 C 
ATOM      2  N   UNL     1     -11.770  12.142  65.939  0.00  0.00    -0.117 NA
ENDROOT
BRANCH   1   3
ATOM      3  C   UNL     1     -11.613  11.975  63.570  0.00  0.00    +0.345 C 
ATOM      4  F   UNL     1     -12.925  11.697  63.206  0.00  0.00    -0.196 F 
ATOM      5  F   UNL     1     -11.018  10.764  63.854  0.00  0.00    -0.196 F 
ENDBRANCH   1   3
BRANCH   1   6
ATOM      6  C   UNL     1     -12.731  13.876  64.596  0.00  0.00    +0.385 C 
ATOM      7  O   UNL     1     -12.523  15.008  63.835  0.00  0.00    -0.244 OA
ATOM      8  O   UNL     1     -13.493  14.004  65.601  0.00  0.00    -0.244 OA
ENDBRANCH   1   6
BRANCH   1   9
ATOM      9  C   UNL     1     -10.333  13.749  64.807  0.00  0.00    +0.036 C 
BRANCH   9  10
ATOM     10  C   UNL     1      -9.922  14.109  66.202  0.00  0.00    +0.023 C 
BRANCH  10  12
ATOM     11  N   UNL     1      -9.927  16.397  65.515  0.00  0.00    -0.131 NA
ATOM     12  C   UNL     1      -9.189  15.419  66.291  0.00  0.00    +0.109 C 
ENDBRANCH  10  12
ENDBRANCH   9  10
ENDBRANCH   1   9
TORSDOF 5
ENDMDL
MODEL 8
REMARK VINA RESULT:      -4.4      6.043      7.195
REMARK  Name = 
REMARK  5 active torsions:
REMARK  status: ('A' for Active; 'I' for Inactive)
REMARK    1  A    between atoms: C_2  and  C_3
REMARK    2  A    between atoms: C_3  and  C_4
REMARK    3  A    between atoms: C_4  and  C_5
REMARK    4  A    between atoms: C_5  and  C_7
REMARK    5  A    between atoms: C_5  and  C_10
REMARK                            x       y       z     vdW  Elec       q    Type
REMARK                         _______ _______ _______ _____ _____    ______ ____
ROOT
ATOM      1  C   UNL     1     -10.933  14.714  65.297  0.00  0.00    +0.231 C 
ATOM      2  N   UNL     1     -10.205  13.649  64.651  0.00  0.00    -0.117 NA
ENDROOT
BRANCH   1   3
ATOM      3  C   UNL     1      -9.937  15.564  66.040  0.00  0.00    +0.345 C 
ATOM      4  F   UNL     1      -8.774  14.841  66.277  0.00  0.00    -0.196 F 
ATOM      5  F   UNL     1     -10.403  15.976  67.269  0.00  0.00    -0.196 F 
ENDBRANCH   1   3
BRANCH   1   6
ATOM      6  C   UNL     1     -11.592  15.561  64.256  0.00  0.00    +0.385 C 
ATOM      7  O   UNL     1     -11.333  16.916  64.281  0.00  0.00    -0.244 OA
ATOM      8  O   UNL     1     -12.758  15.216  63.898  0.00  0.00    -0.244 OA
ENDBRANCH   1   6
BRANCH   1   9
ATOM      9  C   UNL     1     -12.027  14.175  66.180  0.00  0.00    +0.036 C 
BRANCH   9  10
ATOM     10  C   UNL     1     -11.866  12.725  66.523  0.00  0.00    +0.023 C 
BRANCH  10  12
ATOM     11  N   UNL     1     -12.078  11.141  68.297  0.00  0.00    -0.131 NA
ATOM     12  C   UNL     1     -11.616  12.479  67.986  0.00  0.00    +0.109 C 
ENDBRANCH  10  12
ENDBRANCH   9  10
ENDBRANCH   1   9
TORSDOF 5
ENDMDL
MODEL 9
REMARK VINA RESULT:      -4.3      5.939      7.213
REMARK  Name = 
REMARK  5 active torsions:
REMARK  status: ('A' for Active; 'I' for Inactive)
REMARK    1  A    between atoms: C_2  and  C_3
REMARK    2  A    between atoms: C_3  and  C_4
REMARK    3  A    between atoms: C_4  and  C_5
REMARK    4  A    between atoms: C_5  and  C_7
REMARK    5  A    between atoms: C_5  and  C_10
REMARK                            x       y       z     vdW  Elec       q    Type
REMARK                         _______ _______ _______ _____ _____    ______ ____
ROOT
ATOM      1  C   UNL     1     -10.898  14.816  65.798  0.00  0.00    +0.231 C 
ATOM      2  N   UNL     1      -9.653  14.138  66.064  0.00  0.00    -0.117 NA
ENDROOT
BRANCH   1   3
ATOM      3  C   UNL     1     -11.706  14.806  67.067  0.00  0.00    +0.345 C 
ATOM      4  F   UNL     1     -11.195  15.735  67.966  0.00  0.00    -0.196 F 
ATOM      5  F   UNL     1     -11.678  13.585  67.705  0.00  0.00    -0.196 F 
ENDBRANCH   1   3
BRANCH   1   6
ATOM      6  C   UNL     1     -10.614  16.238  65.432  0.00  0.00    +0.385 C 
ATOM      7  O   UNL     1     -11.267  16.754  64.331  0.00  0.00    -0.244 OA
ATOM      8  O   UNL     1      -9.432  16.650  65.630  0.00  0.00    -0.244 OA
ENDBRANCH   1   6
BRANCH   1   9
ATOM      9  C   UNL     1     -11.621  14.199  64.630  0.00  0.00    +0.036 C 
BRANCH   9  10
ATOM     10  C   UNL     1     -10.956  12.969  64.091  0.00  0.00    +0.023 C 
BRANCH  10  12
ATOM     11  N   UNL     1     -13.222  12.219  64.183  0.00  0.00    -0.131 NA
ATOM     12  C   UNL     1     -11.927  11.931  63.598  0.00  0.00    +0.109 C 
ENDBRANCH  10  12
ENDBRANCH   9  10
ENDBRANCH   1   9
TORSDOF 5
ENDMDL
