MODEL 1
REMARK VINA RESULT:      -3.2      0.000      0.000
REMARK  Name = 
REMARK  0 active torsions:
REMARK  status: ('A' for Active; 'I' for Inactive)
REMARK                            x       y       z     vdW  Elec       q    Type
REMARK                         _______ _______ _______ _____ _____    ______ ____
ROOT
ATOM      1  C   UNL     1     -13.561  13.279  72.270  0.00  0.00    +0.133 C 
ATOM      2  N   UNL     1     -12.963  14.435  71.645  0.00  0.00    -0.303 N 
ATOM      3  C   UNL     1     -12.610  15.561  72.312  0.00  0.00    +0.182 A 
ATOM      4  S   UNL     1     -12.589  15.713  73.938  0.00  0.00    -0.011 S 
ATOM      5  N   UNL     1     -11.668  16.118  71.510  0.00  0.00    -0.219 NA
ATOM      6  C   UNL     1     -12.008  15.786  70.250  0.00  0.00    +0.120 A 
ATOM      7  C   UNL     1     -12.720  14.602  70.320  0.00  0.00    +0.098 A 
ENDROOT
TORSDOF 0
ENDMDL
MODEL 2
REMARK VINA RESULT:      -3.2      0.942      2.356
REMARK  Name = 
REMARK  0 active torsions:
REMARK  status: ('A' for Active; 'I' for Inactive)
REMARK                            x       y       z     vdW  Elec       q    Type
REMARK                         _______ _______ _______ _____ _____    ______ ____
ROOT
ATOM      1  C   UNL     1     -11.541  15.920  70.915  0.00  0.00    +0.133 C 
ATOM      2  N   UNL     1     -12.227  14.793  71.502  0.00  0.00    -0.303 N 
ATOM      3  C   UNL     1     -12.634  14.741  72.793  0.00  0.00    +0.182 A 
ATOM      4  S   UNL     1     -12.624  16.007  73.826  0.00  0.00    -0.011 S 
ATOM      5  N   UNL     1     -13.631  13.820  72.772  0.00  0.00    -0.219 NA
ATOM      6  C   UNL     1     -13.302  12.940  71.807  0.00  0.00    +0.120 A 
ATOM      7  C   UNL     1     -12.515  13.615  70.892  0.00  0.00    +0.098 A 
ENDROOT
TORSDOF 0
ENDMDL
MODEL 3
REMARK VINA RESULT:      -3.2      1.892      2.372
REMARK  Name = 
REMARK  0 active torsions:
REMARK  status: ('A' for Active; 'I' for Inactive)
REMARK                            x       y       z     vdW  Elec       q    Type
REMARK                         _______ _______ _______ _____ _____    ______ ____
ROOT
ATOM      1  C   UNL     1     -13.632  13.098  72.205  0.00  0.00    +0.133 C 
ATOM      2  N   UNL     1     -12.878  14.322  72.340  0.00  0.00    -0.303 N 
ATOM      3  C   UNL     1     -12.025  14.795  71.399  0.00  0.00    +0.182 A 
ATOM      4  S   UNL     1     -11.879  14.196  69.886  0.00  0.00    -0.011 S 
ATOM      5  N   UNL     1     -11.963  16.123  71.671  0.00  0.00    -0.219 NA
ATOM      6  C   UNL     1     -12.121  16.238  73.004  0.00  0.00    +0.120 A 
ATOM      7  C   UNL     1     -12.855  15.142  73.421  0.00  0.00    +0.098 A 
ENDROOT
TORSDOF 0
ENDMDL
MODEL 4
REMARK VINA RESULT:      -3.2      1.906      2.970
REMARK  Name = 
REMARK  0 active torsions:
REMARK  status: ('A' for Active; 'I' for Inactive)
REMARK                            x       y       z     vdW  Elec       q    Type
REMARK                         _______ _______ _______ _____ _____    ______ ____
ROOT
ATOM      1  C   UNL     1     -12.181  15.676  70.724  0.00  0.00    +0.133 C 
ATOM      2  N   UNL     1     -12.433  15.617  72.145  0.00  0.00    -0.303 N 
ATOM      3  C   UNL     1     -13.096  14.606  72.757  0.00  0.00    +0.182 A 
ATOM      4  S   UNL     1     -13.517  13.199  72.041  0.00  0.00    -0.011 S 
ATOM      5  N   UNL     1     -12.660  14.675  74.040  0.00  0.00    -0.219 NA
ATOM      6  C   UNL     1     -12.412  15.977  74.279  0.00  0.00    +0.120 A 
ATOM      7  C   UNL     1     -12.109  16.563  73.063  0.00  0.00    +0.098 A 
ENDROOT
TORSDOF 0
ENDMDL
MODEL 5
REMARK VINA RESULT:      -3.1      2.083      2.644
REMARK  Name = 
REMARK  0 active torsions:
REMARK  status: ('A' for Active; 'I' for Inactive)
REMARK                            x       y       z     vdW  Elec       q    Type
REMARK                         _______ _______ _______ _____ _____    ______ ____
ROOT
ATOM      1  C   UNL     1     -12.088  12.686  70.275  0.00  0.00    +0.133 C 
ATOM      2  N   UNL     1     -12.719  13.736  71.040  0.00  0.00    -0.303 N 
ATOM      3  C   UNL     1     -12.545  15.058  70.801  0.00  0.00    +0.182 A 
ATOM      4  S   UNL     1     -11.791  15.678  69.491  0.00  0.00    -0.011 S 
ATOM      5  N   UNL     1     -13.651  15.624  71.346  0.00  0.00    -0.219 NA
ATOM      6  C   UNL     1     -13.986  14.849  72.396  0.00  0.00    +0.120 A 
ATOM      7  C   UNL     1     -13.516  13.576  72.127  0.00  0.00    +0.098 A 
ENDROOT
TORSDOF 0
ENDMDL
MODEL 6
REMARK VINA RESULT:      -3.0      6.939      7.551
REMARK  Name = 
REMARK  0 active torsions:
REMARK  status: ('A' for Active; 'I' for Inactive)
REMARK                            x       y       z     vdW  Elec       q    Type
REMARK                         _______ _______ _______ _____ _____    ______ ____
ROOT
ATOM      1  C   UNL     1      -9.737  12.115  65.836  0.00  0.00    +0.133 C 
ATOM      2  N   UNL     1     -10.934  12.208  65.034  0.00  0.00    -0.303 N 
ATOM      3  C   UNL     1     -12.023  12.937  65.378  0.00  0.00    +0.182 A 
ATOM      4  S   UNL     1     -12.082  13.996  66.621  0.00  0.00    -0.011 S 
ATOM      5  N   UNL     1     -12.635  13.167  64.189  0.00  0.00    -0.219 NA
ATOM      6  C   UNL     1     -12.372  12.091  63.422  0.00  0.00    +0.120 A 
ATOM      7  C   UNL     1     -11.179  11.555  63.870  0.00  0.00    +0.098 A 
ENDROOT
TORSDOF 0
ENDMDL
MODEL 7
REMARK VINA RESULT:      -3.0      5.567      6.533
REMARK  Name = 
REMARK  0 active torsions:
REMARK  status: ('A' for Active; 'I' for Inactive)
REMARK                            x       y       z     vdW  Elec       q    Type
REMARK                         _______ _______ _______ _____ _____    ______ ____
ROOT
ATOM      1  C   UNL     1     -10.497  17.061  68.748  0.00  0.00    +0.133 C 
ATOM      2  N   UNL     1     -10.347  17.948  67.619  0.00  0.00    -0.303 N 
ATOM      3  C   UNL     1     -10.123  17.531  66.349  0.00  0.00    +0.182 A 
ATOM      4  S   UNL     1     -10.209  15.977  65.850  0.00  0.00    -0.011 S 
ATOM      5  N   UNL     1     -10.562  18.569  65.595  0.00  0.00    -0.219 NA
ATOM      6  C   UNL     1     -10.332  19.680  66.321  0.00  0.00    +0.120 A 
ATOM      7  C   UNL     1     -10.348  19.305  67.652  0.00  0.00    +0.098 A 
ENDROOT
TORSDOF 0
ENDMDL
MODEL 8
REMARK VINA RESULT:      -3.0      6.143      6.957
REMARK  Name = 
REMARK  0 active torsions:
REMARK  status: ('A' for Active; 'I' for Inactive)
REMARK                            x       y       z     vdW  Elec       q    Type
REMARK                         _______ _______ _______ _____ _____    ______ ____
ROOT
ATOM      1  C   UNL     1     -10.896  15.175  65.017  0.00  0.00    +0.133 C 
ATOM      2  N   UNL     1     -11.425  14.114  65.842  0.00  0.00    -0.303 N 
ATOM      3  C   UNL     1     -12.043  13.011  65.355  0.00  0.00    +0.182 A 
ATOM      4  S   UNL     1     -12.094  12.590  63.777  0.00  0.00    -0.011 S 
ATOM      5  N   UNL     1     -11.896  12.103  66.352  0.00  0.00    -0.219 NA
ATOM      6  C   UNL     1     -11.899  12.807  67.500  0.00  0.00    +0.120 A 
ATOM      7  C   UNL     1     -11.441  14.077  67.199  0.00  0.00    +0.098 A 
ENDROOT
TORSDOF 0
ENDMDL
MODEL 9
REMARK VINA RESULT:      -3.0      1.735      2.182
REMARK  Name = 
REMARK  0 active torsions:
REMARK  status: ('A' for Active; 'I' for Inactive)
REMARK                            x       y       z     vdW  Elec       q    Type
REMARK                         _______ _______ _______ _____ _____    ______ ____
ROOT
ATOM      1  C   UNL     1     -12.438  15.292  73.929  0.00  0.00    +0.133 C 
ATOM      2  N   UNL     1     -12.314  15.274  72.491  0.00  0.00    -0.303 N 
ATOM      3  C   UNL     1     -12.714  14.243  71.707  0.00  0.00    +0.182 A 
ATOM      4  S   UNL     1     -13.596  12.968  72.223  0.00  0.00    -0.011 S 
ATOM      5  N   UNL     1     -12.904  14.825  70.496  0.00  0.00    -0.219 NA
ATOM      6  C   UNL     1     -12.009  15.829  70.421  0.00  0.00    +0.120 A 
ATOM      7  C   UNL     1     -11.741  16.230  71.717  0.00  0.00    +0.098 A 
ENDROOT
TORSDOF 0
ENDMDL
