MODEL 1
REMARK VINA RESULT:      -7.6      0.000      0.000
REMARK  Name = 
REMARK  2 active torsions:
REMARK  status: ('A' for Active; 'I' for Inactive)
REMARK    1  A    between atoms: C_23  and  C_25
REMARK    2  A    between atoms: C_25  and  C_27
REMARK                            x       y       z     vdW  Elec       q    Type
REMARK                         _______ _______ _______ _____ _____    ______ ____
ROOT
ATOM      1  C   UNL     1     -10.256  12.411  68.334  0.00  0.00    +0.003 C 
ATOM      2  C   UNL     1     -10.397  12.506  66.712  0.00  0.00    +0.035 C 
ATOM      3  C   UNL     1     -11.437  13.755  66.747  0.00  0.00    +0.180 C 
ATOM      4  O   UNL     1     -12.281  13.613  67.809  0.00  0.00    -0.218 OA
ATOM      5  C   UNL     1     -10.673  14.918  66.543  0.00  0.00    +0.035 C 
ATOM      6  C   UNL     1      -9.491  14.541  67.590  0.00  0.00    +0.004 C 
ATOM      7  C   UNL     1      -8.607  15.815  66.946  0.00  0.00    +0.019 C 
ATOM      8  C   UNL     1      -8.848  16.714  68.333  0.00  0.00    +0.039 C 
ATOM      9  C   UNL     1     -10.549  16.590  68.433  0.00  0.00    +0.153 C 
ATOM     10  O   UNL     1     -10.854  18.065  68.293  0.00  0.00    -0.223 OA
ATOM     11  C   UNL     1      -8.632  18.098  67.567  0.00  0.00    +0.036 C 
ATOM     12  C   UNL     1      -7.188  17.821  67.203  0.00  0.00    -0.037 C 
ATOM     13  C   UNL     1      -6.565  18.909  66.737  0.00  0.00    +0.034 C 
ATOM     14  C   UNL     1      -6.879  20.242  67.275  0.00  0.00    +0.195 C 
ATOM     15  C   UNL     1      -7.691  20.186  68.499  0.00  0.00    +0.038 C 
ATOM     16  O   UNL     1      -6.207  21.269  66.962  0.00  0.00    -0.287 OA
ATOM     17  C   UNL     1      -6.443  16.684  67.731  0.00  0.00    +0.039 C 
ATOM     18  C   UNL     1      -9.319  18.291  66.333  0.00  0.00    +0.009 C 
ATOM     19  C   UNL     1      -8.584  19.193  68.541  0.00  0.00    -0.020 C 
ATOM     20  C   UNL     1      -7.105  15.296  67.373  0.00  0.00    +0.084 C 
ATOM     21 CL   UNL     1      -7.403  14.806  69.148  0.00  0.00    -0.115 Cl
ATOM     22  C   UNL     1     -10.084  14.831  65.135  0.00  0.00    +0.003 C 
ATOM     23  C   UNL     1     -10.907  16.278  66.868  0.00  0.00    +0.036 C 
ATOM     24  C   UNL     1      -9.024  13.384  66.567  0.00  0.00    +0.003 C 
ENDROOT
BRANCH   3  25
ATOM     25  C   UNL     1     -12.291  13.478  65.540  0.00  0.00    +0.211 C 
ATOM     26  O   UNL     1     -13.307  14.153  65.377  0.00  0.00    -0.291 OA
BRANCH  25  27
ATOM     27  C   UNL     1     -12.157  12.279  64.689  0.00  0.00    +0.248 C 
ATOM     28  O   UNL     1     -12.981  12.270  63.586  0.00  0.00    -0.212 OA
ENDBRANCH  25  27
ENDBRANCH   3  25
TORSDOF 2
ENDMDL
MODEL 2
REMARK VINA RESULT:      -7.0      2.252      3.463
REMARK  Name = 
REMARK  2 active torsions:
REMARK  status: ('A' for Active; 'I' for Inactive)
REMARK    1  A    between atoms: C_23  and  C_25
REMARK    2  A    between atoms: C_25  and  C_27
REMARK                            x       y       z     vdW  Elec       q    Type
REMARK                         _______ _______ _______ _____ _____    ______ ____
ROOT
ATOM      1  C   UNL     1     -11.618  14.960  65.762  0.00  0.00    +0.003 C 
ATOM      2  C   UNL     1     -11.642  14.380  67.286  0.00  0.00    +0.035 C 
ATOM      3  C   UNL     1     -10.092  13.887  67.259  0.00  0.00    +0.180 C 
ATOM      4  O   UNL     1      -9.792  13.404  66.019  0.00  0.00    -0.218 OA
ATOM      5  C   UNL     1      -9.339  14.902  67.875  0.00  0.00    +0.035 C 
ATOM      6  C   UNL     1     -10.032  16.142  67.090  0.00  0.00    +0.004 C 
ATOM      7  C   UNL     1      -9.267  17.169  68.176  0.00  0.00    +0.019 C 
ATOM      8  C   UNL     1      -8.208  17.674  66.987  0.00  0.00    +0.039 C 
ATOM      9  C   UNL     1      -7.660  16.146  66.457  0.00  0.00    +0.153 C 
ATOM     10  O   UNL     1      -6.203  16.332  66.819  0.00  0.00    -0.223 OA
ATOM     11  C   UNL     1      -7.098  18.107  68.050  0.00  0.00    +0.036 C 
ATOM     12  C   UNL     1      -7.943  19.191  68.686  0.00  0.00    -0.037 C 
ATOM     13  C   UNL     1      -7.231  19.976  69.502  0.00  0.00    +0.034 C 
ATOM     14  C   UNL     1      -5.832  20.310  69.190  0.00  0.00    +0.195 C 
ATOM     15  C   UNL     1      -5.447  19.934  67.821  0.00  0.00    +0.038 C 
ATOM     16  O   UNL     1      -5.178  21.163  69.860  0.00  0.00    -0.287 OA
ATOM     17  C   UNL     1      -9.219  19.628  68.131  0.00  0.00    +0.039 C 
ATOM     18  C   UNL     1      -6.783  17.189  69.095  0.00  0.00    +0.009 C 
ATOM     19  C   UNL     1      -6.012  18.814  67.363  0.00  0.00    -0.020 C 
ATOM     20  C   UNL     1     -10.276  18.460  68.025  0.00  0.00    +0.084 C 
ATOM     21 CL   UNL     1     -10.431  18.561  66.170  0.00  0.00    -0.115 Cl
ATOM     22  C   UNL     1      -9.787  14.974  69.335  0.00  0.00    +0.003 C 
ATOM     23  C   UNL     1      -7.967  15.251  67.791  0.00  0.00    +0.036 C 
ATOM     24  C   UNL     1     -11.377  15.859  67.935  0.00  0.00    +0.003 C 
ENDROOT
BRANCH   3  25
ATOM     25  C   UNL     1     -10.143  12.669  68.141  0.00  0.00    +0.211 C 
ATOM     26  O   UNL     1      -9.122  11.992  68.259  0.00  0.00    -0.291 OA
BRANCH  25  27
ATOM     27  C   UNL     1     -11.390  12.069  68.653  0.00  0.00    +0.248 C 
ATOM     28  O   UNL     1     -11.864  11.016  67.903  0.00  0.00    -0.212 OA
ENDBRANCH  25  27
ENDBRANCH   3  25
TORSDOF 2
ENDMDL
MODEL 3
REMARK VINA RESULT:      -6.7      2.167      3.086
REMARK  Name = 
REMARK  2 active torsions:
REMARK  status: ('A' for Active; 'I' for Inactive)
REMARK    1  A    between atoms: C_23  and  C_25
REMARK    2  A    between atoms: C_25  and  C_27
REMARK                            x       y       z     vdW  Elec       q    Type
REMARK                         _______ _______ _______ _____ _____    ______ ____
ROOT
ATOM      1  C   UNL     1     -12.003  11.813  68.082  0.00  0.00    +0.003 C 
ATOM      2  C   UNL     1     -10.439  11.377  67.931  0.00  0.00    +0.035 C 
ATOM      3  C   UNL     1     -10.297  11.939  66.411  0.00  0.00    +0.180 C 
ATOM      4  O   UNL     1     -11.458  11.714  65.734  0.00  0.00    -0.218 OA
ATOM      5  C   UNL     1      -9.718  13.217  66.511  0.00  0.00    +0.035 C 
ATOM      6  C   UNL     1     -10.667  13.751  67.714  0.00  0.00    +0.004 C 
ATOM      7  C   UNL     1      -9.623  15.057  67.868  0.00  0.00    +0.019 C 
ATOM      8  C   UNL     1     -10.764  16.078  67.202  0.00  0.00    +0.039 C 
ATOM      9  C   UNL     1     -11.106  15.197  65.779  0.00  0.00    +0.153 C 
ATOM     10  O   UNL     1     -10.647  16.247  64.792  0.00  0.00    -0.223 OA
ATOM     11  C   UNL     1      -9.660  17.126  66.721  0.00  0.00    +0.036 C 
ATOM     12  C   UNL     1      -9.196  17.477  68.119  0.00  0.00    -0.037 C 
ATOM     13  C   UNL     1      -8.401  18.553  68.135  0.00  0.00    +0.034 C 
ATOM     14  C   UNL     1      -8.630  19.668  67.203  0.00  0.00    +0.195 C 
ATOM     15  C   UNL     1      -9.923  19.575  66.508  0.00  0.00    +0.038 C 
ATOM     16  O   UNL     1      -7.991  20.758  67.288  0.00  0.00    -0.287 OA
ATOM     17  C   UNL     1      -9.890  17.025  69.320  0.00  0.00    +0.039 C 
ATOM     18  C   UNL     1      -8.514  16.621  66.041  0.00  0.00    +0.009 C 
ATOM     19  C   UNL     1     -10.320  18.334  66.216  0.00  0.00    -0.020 C 
ATOM     20  C   UNL     1      -9.971  15.451  69.427  0.00  0.00    +0.084 C 
ATOM     21 CL   UNL     1     -11.835  15.392  69.388  0.00  0.00    -0.115 Cl
ATOM     22  C   UNL     1      -8.311  13.033  67.081  0.00  0.00    +0.003 C 
ATOM     23  C   UNL     1      -9.724  14.334  65.636  0.00  0.00    +0.036 C 
ATOM     24  C   UNL     1      -9.910  12.721  68.699  0.00  0.00    +0.003 C 
ENDROOT
BRANCH   3  25
ATOM     25  C   UNL     1      -9.313  10.969  65.816  0.00  0.00    +0.211 C 
ATOM     26  O   UNL     1      -9.068  11.052  64.613  0.00  0.00    -0.291 OA
BRANCH  25  27
ATOM     27  C   UNL     1      -8.831   9.754  66.501  0.00  0.00    +0.248 C 
ATOM     28  O   UNL     1      -9.362   8.579  66.015  0.00  0.00    -0.212 OA
ENDBRANCH  25  27
ENDBRANCH   3  25
TORSDOF 2
ENDMDL
MODEL 4
REMARK VINA RESULT:      -6.6      2.567      6.851
REMARK  Name = 
REMARK  2 active torsions:
REMARK  status: ('A' for Active; 'I' for Inactive)
REMARK    1  A    between atoms: C_23  and  C_25
REMARK    2  A    between atoms: C_25  and  C_27
REMARK                            x       y       z     vdW  Elec       q    Type
REMARK                         _______ _______ _______ _____ _____    ______ ____
ROOT
ATOM      1  C   UNL     1      -6.562  19.817  69.681  0.00  0.00    +0.003 C 
ATOM      2  C   UNL     1      -5.500  19.337  68.540  0.00  0.00    +0.035 C 
ATOM      3  C   UNL     1      -5.512  17.778  69.004  0.00  0.00    +0.180 C 
ATOM      4  O   UNL     1      -5.605  17.710  70.362  0.00  0.00    -0.218 OA
ATOM      5  C   UNL     1      -6.413  17.115  68.152  0.00  0.00    +0.035 C 
ATOM      6  C   UNL     1      -7.598  18.219  68.249  0.00  0.00    +0.004 C 
ATOM      7  C   UNL     1      -8.349  17.429  66.972  0.00  0.00    +0.019 C 
ATOM      8  C   UNL     1      -9.521  16.830  68.001  0.00  0.00    +0.039 C 
ATOM      9  C   UNL     1      -8.502  16.137  69.183  0.00  0.00    +0.153 C 
ATOM     10  O   UNL     1      -8.956  14.705  69.006  0.00  0.00    -0.223 OA
ATOM     11  C   UNL     1      -9.847  15.599  67.039  0.00  0.00    +0.036 C 
ATOM     12  C   UNL     1     -10.348  16.457  65.895  0.00  0.00    -0.037 C 
ATOM     13  C   UNL     1     -10.963  15.735  64.951  0.00  0.00    +0.034 C 
ATOM     14  C   UNL     1     -11.769  14.559  65.313  0.00  0.00    +0.195 C 
ATOM     15  C   UNL     1     -12.026  14.465  66.757  0.00  0.00    +0.038 C 
ATOM     16  O   UNL     1     -12.479  13.943  64.464  0.00  0.00    -0.287 OA
ATOM     17  C   UNL     1     -10.569  17.893  66.021  0.00  0.00    +0.039 C 
ATOM     18  C   UNL     1      -8.751  14.850  66.519  0.00  0.00    +0.009 C 
ATOM     19  C   UNL     1     -11.029  14.889  67.538  0.00  0.00    -0.020 C 
ATOM     20  C   UNL     1      -9.264  18.683  66.428  0.00  0.00    +0.084 C 
ATOM     21 CL   UNL     1      -9.965  19.320  68.034  0.00  0.00    -0.115 Cl
ATOM     22  C   UNL     1      -5.835  17.184  66.739  0.00  0.00    +0.003 C 
ATOM     23  C   UNL     1      -7.146  15.909  68.298  0.00  0.00    +0.036 C 
ATOM     24  C   UNL     1      -6.664  19.221  67.396  0.00  0.00    +0.003 C 
ENDROOT
BRANCH   3  25
ATOM     25  C   UNL     1      -4.101  17.356  68.696  0.00  0.00    +0.211 C 
ATOM     26  O   UNL     1      -3.760  16.209  68.984  0.00  0.00    -0.291 OA
BRANCH  25  27
ATOM     27  C   UNL     1      -3.018  18.290  68.332  0.00  0.00    +0.248 C 
ATOM     28  O   UNL     1      -2.123  18.546  69.348  0.00  0.00    -0.212 OA
ENDBRANCH  25  27
ENDBRANCH   3  25
TORSDOF 2
ENDMDL
MODEL 5
REMARK VINA RESULT:      -6.5      4.037      6.625
REMARK  Name = 
REMARK  2 active torsions:
REMARK  status: ('A' for Active; 'I' for Inactive)
REMARK    1  A    between atoms: C_23  and  C_25
REMARK    2  A    between atoms: C_25  and  C_27
REMARK                            x       y       z     vdW  Elec       q    Type
REMARK                         _______ _______ _______ _____ _____    ______ ____
ROOT
ATOM      1  C   UNL     1      -7.437   8.204  68.105  0.00  0.00    +0.003 C 
ATOM      2  C   UNL     1      -8.917   7.719  68.587  0.00  0.00    +0.035 C 
ATOM      3  C   UNL     1      -9.185   9.031  69.511  0.00  0.00    +0.180 C 
ATOM      4  O   UNL     1      -8.021   9.408  70.111  0.00  0.00    -0.218 OA
ATOM      5  C   UNL     1      -9.953   9.916  68.734  0.00  0.00    +0.035 C 
ATOM      6  C   UNL     1      -9.068   9.782  67.380  0.00  0.00    +0.004 C 
ATOM      7  C   UNL     1     -10.298  10.592  66.575  0.00  0.00    +0.019 C 
ATOM      8  C   UNL     1      -9.347  11.960  66.450  0.00  0.00    +0.039 C 
ATOM      9  C   UNL     1      -8.911  12.126  68.093  0.00  0.00    +0.153 C 
ATOM     10  O   UNL     1      -9.553  13.476  68.323  0.00  0.00    -0.223 OA
ATOM     11  C   UNL     1     -10.614  12.922  66.314  0.00  0.00    +0.036 C 
ATOM     12  C   UNL     1     -11.090  12.328  65.005  0.00  0.00    -0.037 C 
ATOM     13  C   UNL     1     -12.042  13.069  64.427  0.00  0.00    +0.034 C 
ATOM     14  C   UNL     1     -12.014  14.537  64.528  0.00  0.00    +0.195 C 
ATOM     15  C   UNL     1     -10.741  15.049  65.058  0.00  0.00    +0.038 C 
ATOM     16  O   UNL     1     -12.813  15.272  63.875  0.00  0.00    -0.287 OA
ATOM     17  C   UNL     1     -10.303  11.367  64.240  0.00  0.00    +0.039 C 
ATOM     18  C   UNL     1     -11.685  12.749  67.239  0.00  0.00    +0.009 C 
ATOM     19  C   UNL     1     -10.164  14.279  65.983  0.00  0.00    -0.020 C 
ATOM     20  C   UNL     1      -9.975  10.054  65.054  0.00  0.00    +0.084 C 
ATOM     21 CL   UNL     1      -8.126  10.294  64.991  0.00  0.00    -0.115 Cl
ATOM     22  C   UNL     1     -11.299   9.238  68.472  0.00  0.00    +0.003 C 
ATOM     23  C   UNL     1     -10.144  11.320  68.802  0.00  0.00    +0.036 C 
ATOM     24  C   UNL     1      -9.629   8.277  67.224  0.00  0.00    +0.003 C 
ENDROOT
BRANCH   3  25
ATOM     25  C   UNL     1     -10.021   8.458  70.622  0.00  0.00    +0.211 C 
ATOM     26  O   UNL     1     -10.309   9.187  71.571  0.00  0.00    -0.291 OA
BRANCH  25  27
ATOM     27  C   UNL     1     -10.288   7.017  70.799  0.00  0.00    +0.248 C 
ATOM     28  O   UNL     1     -11.623   6.696  70.909  0.00  0.00    -0.212 OA
ENDBRANCH  25  27
ENDBRANCH   3  25
TORSDOF 2
ENDMDL
MODEL 6
REMARK VINA RESULT:      -6.5      2.786      4.426
REMARK  Name = 
REMARK  2 active torsions:
REMARK  status: ('A' for Active; 'I' for Inactive)
REMARK    1  A    between atoms: C_23  and  C_25
REMARK    2  A    between atoms: C_25  and  C_27
REMARK                            x       y       z     vdW  Elec       q    Type
REMARK                         _______ _______ _______ _____ _____    ______ ____
ROOT
ATOM      1  C   UNL     1     -10.557  18.277  66.026  0.00  0.00    +0.003 C 
ATOM      2  C   UNL     1     -10.833  17.184  67.204  0.00  0.00    +0.035 C 
ATOM      3  C   UNL     1      -9.690  16.149  66.688  0.00  0.00    +0.180 C 
ATOM      4  O   UNL     1      -9.659  16.151  65.325  0.00  0.00    -0.218 OA
ATOM      5  C   UNL     1      -8.546  16.396  67.469  0.00  0.00    +0.035 C 
ATOM      6  C   UNL     1      -8.592  18.014  67.347  0.00  0.00    +0.004 C 
ATOM      7  C   UNL     1      -7.428  18.071  68.555  0.00  0.00    +0.019 C 
ATOM      8  C   UNL     1      -6.266  18.531  67.447  0.00  0.00    +0.039 C 
ATOM      9  C   UNL     1      -6.494  17.289  66.297  0.00  0.00    +0.153 C 
ATOM     10  O   UNL     1      -5.114  16.679  66.402  0.00  0.00    -0.223 OA
ATOM     11  C   UNL     1      -5.073  17.973  68.349  0.00  0.00    +0.036 C 
ATOM     12  C   UNL     1      -5.312  18.936  69.493  0.00  0.00    -0.037 C 
ATOM     13  C   UNL     1      -4.310  18.933  70.378  0.00  0.00    +0.034 C 
ATOM     14  C   UNL     1      -2.919  18.747  69.936  0.00  0.00    +0.195 C 
ATOM     15  C   UNL     1      -2.765  18.852  68.477  0.00  0.00    +0.038 C 
ATOM     16  O   UNL     1      -1.938  18.883  70.725  0.00  0.00    -0.287 OA
ATOM     17  C   UNL     1      -6.245  20.054  69.403  0.00  0.00    +0.039 C 
ATOM     18  C   UNL     1      -5.209  16.665  68.900  0.00  0.00    +0.009 C 
ATOM     19  C   UNL     1      -3.789  18.376  67.765  0.00  0.00    -0.020 C 
ATOM     20  C   UNL     1      -7.724  19.597  69.093  0.00  0.00    +0.084 C 
ATOM     21 CL   UNL     1      -7.832  20.517  67.474  0.00  0.00    -0.115 Cl
ATOM     22  C   UNL     1      -8.896  16.034  68.912  0.00  0.00    +0.003 C 
ATOM     23  C   UNL     1      -7.169  16.140  67.245  0.00  0.00    +0.036 C 
ATOM     24  C   UNL     1      -9.907  17.996  68.281  0.00  0.00    +0.003 C 
ENDROOT
BRANCH   3  25
ATOM     25  C   UNL     1     -10.291  14.820  67.056  0.00  0.00    +0.211 C 
ATOM     26  O   UNL     1      -9.659  13.799  66.784  0.00  0.00    -0.291 OA
BRANCH  25  27
ATOM     27  C   UNL     1     -11.696  14.631  67.463  0.00  0.00    +0.248 C 
ATOM     28  O   UNL     1     -12.467  13.947  66.549  0.00  0.00    -0.212 OA
ENDBRANCH  25  27
ENDBRANCH   3  25
TORSDOF 2
ENDMDL
MODEL 7
REMARK VINA RESULT:      -6.4      3.117      6.957
REMARK  Name = 
REMARK  2 active torsions:
REMARK  status: ('A' for Active; 'I' for Inactive)
REMARK    1  A    between atoms: C_23  and  C_25
REMARK    2  A    between atoms: C_25  and  C_27
REMARK                            x       y       z     vdW  Elec       q    Type
REMARK                         _______ _______ _______ _____ _____    ______ ____
ROOT
ATOM      1  C   UNL     1     -10.974  15.603  69.452  0.00  0.00    +0.003 C 
ATOM      2  C   UNL     1     -11.203  15.892  67.864  0.00  0.00    +0.035 C 
ATOM      3  C   UNL     1      -9.640  15.678  67.469  0.00  0.00    +0.180 C 
ATOM      4  O   UNL     1      -8.850  16.175  68.462  0.00  0.00    -0.218 OA
ATOM      5  C   UNL     1      -9.523  14.357  67.002  0.00  0.00    +0.035 C 
ATOM      6  C   UNL     1     -10.380  13.668  68.195  0.00  0.00    +0.004 C 
ATOM      7  C   UNL     1     -10.387  12.258  67.285  0.00  0.00    +0.019 C 
ATOM      8  C   UNL     1      -9.307  11.543  68.341  0.00  0.00    +0.039 C 
ATOM      9  C   UNL     1      -8.105  12.756  68.346  0.00  0.00    +0.153 C 
ATOM     10  O   UNL     1      -6.986  11.915  67.774  0.00  0.00    -0.223 OA
ATOM     11  C   UNL     1      -8.782  10.520  67.233  0.00  0.00    +0.036 C 
ATOM     12  C   UNL     1     -10.111   9.812  67.069  0.00  0.00    -0.037 C 
ATOM     13  C   UNL     1     -10.000   8.682  66.362  0.00  0.00    +0.034 C 
ATOM     14  C   UNL     1      -8.799   7.840  66.478  0.00  0.00    +0.195 C 
ATOM     15  C   UNL     1      -7.937   8.226  67.605  0.00  0.00    +0.038 C 
ATOM     16  O   UNL     1      -8.725   6.696  65.938  0.00  0.00    -0.287 OA
ATOM     17  C   UNL     1     -11.248  10.051  67.950  0.00  0.00    +0.039 C 
ATOM     18  C   UNL     1      -8.452  11.041  65.948  0.00  0.00    +0.009 C 
ATOM     19  C   UNL     1      -7.893   9.536  67.859  0.00  0.00    -0.020 C 
ATOM     20  C   UNL     1     -11.720  11.558  67.951  0.00  0.00    +0.084 C 
ATOM     21 CL   UNL     1     -11.378  11.824  69.765  0.00  0.00    -0.115 Cl
ATOM     22  C   UNL     1     -10.354  14.254  65.722  0.00  0.00    +0.003 C 
ATOM     23  C   UNL     1      -8.415  13.476  66.910  0.00  0.00    +0.036 C 
ATOM     24  C   UNL     1     -11.700  14.360  67.578  0.00  0.00    +0.003 C 
ENDROOT
BRANCH   3  25
ATOM     25  C   UNL     1      -9.477  16.647  66.329  0.00  0.00    +0.211 C 
ATOM     26  O   UNL     1      -8.357  16.788  65.839  0.00  0.00    -0.291 OA
BRANCH  25  27
ATOM     27  C   UNL     1     -10.492  17.644  65.938  0.00  0.00    +0.248 C 
ATOM     28  O   UNL     1     -11.034  17.444  64.688  0.00  0.00    -0.212 OA
ENDBRANCH  25  27
ENDBRANCH   3  25
TORSDOF 2
ENDMDL
MODEL 8
REMARK VINA RESULT:      -6.3      2.249      6.716
REMARK  Name = 
REMARK  2 active torsions:
REMARK  status: ('A' for Active; 'I' for Inactive)
REMARK    1  A    between atoms: C_23  and  C_25
REMARK    2  A    between atoms: C_25  and  C_27
REMARK                            x       y       z     vdW  Elec       q    Type
REMARK                         _______ _______ _______ _____ _____    ______ ____
ROOT
ATOM      1  C   UNL     1     -10.050  19.674  66.052  0.00  0.00    +0.003 C 
ATOM      2  C   UNL     1      -8.481  19.423  66.418  0.00  0.00    +0.035 C 
ATOM      3  C   UNL     1      -8.773  19.035  67.970  0.00  0.00    +0.180 C 
ATOM      4  O   UNL     1      -9.790  19.808  68.447  0.00  0.00    -0.218 OA
ATOM      5  C   UNL     1      -8.800  17.631  68.033  0.00  0.00    +0.035 C 
ATOM      6  C   UNL     1      -9.742  17.411  66.730  0.00  0.00    +0.004 C 
ATOM      7  C   UNL     1      -9.360  15.778  66.813  0.00  0.00    +0.019 C 
ATOM      8  C   UNL     1     -10.900  15.421  67.352  0.00  0.00    +0.039 C 
ATOM      9  C   UNL     1     -10.984  16.524  68.653  0.00  0.00    +0.153 C 
ATOM     10  O   UNL     1     -11.145  15.502  69.757  0.00  0.00    -0.223 OA
ATOM     11  C   UNL     1     -10.424  14.069  68.055  0.00  0.00    +0.036 C 
ATOM     12  C   UNL     1     -10.003  13.393  66.767  0.00  0.00    -0.037 C 
ATOM     13  C   UNL     1      -9.759  12.089  66.935  0.00  0.00    +0.034 C 
ATOM     14  C   UNL     1     -10.555  11.293  67.882  0.00  0.00    +0.195 C 
ATOM     15  C   UNL     1     -11.749  12.004  68.363  0.00  0.00    +0.038 C 
ATOM     16  O   UNL     1     -10.449  10.033  67.958  0.00  0.00    -0.287 OA
ATOM     17  C   UNL     1     -10.288  13.952  65.451  0.00  0.00    +0.039 C 
ATOM     18  C   UNL     1      -9.259  14.118  68.875  0.00  0.00    +0.009 C 
ATOM     19  C   UNL     1     -11.598  13.321  68.520  0.00  0.00    -0.020 C 
ATOM     20  C   UNL     1      -9.664  15.388  65.244  0.00  0.00    +0.084 C 
ATOM     21 CL   UNL     1     -11.307  16.233  64.992  0.00  0.00    -0.115 Cl
ATOM     22  C   UNL     1      -7.398  17.135  67.677  0.00  0.00    +0.003 C 
ATOM     23  C   UNL     1      -9.391  16.733  68.958  0.00  0.00    +0.036 C 
ATOM     24  C   UNL     1      -8.505  17.901  65.817  0.00  0.00    +0.003 C 
ENDROOT
BRANCH   3  25
ATOM     25  C   UNL     1      -7.540  19.561  68.654  0.00  0.00    +0.211 C 
ATOM     26  O   UNL     1      -7.476  19.485  69.881  0.00  0.00    -0.291 OA
BRANCH  25  27
ATOM     27  C   UNL     1      -6.528  20.411  67.997  0.00  0.00    +0.248 C 
ATOM     28  O   UNL     1      -5.621  20.986  68.860  0.00  0.00    -0.212 OA
ENDBRANCH  25  27
ENDBRANCH   3  25
TORSDOF 2
ENDMDL
MODEL 9
REMARK VINA RESULT:      -6.2      3.359      7.437
REMARK  Name = 
REMARK  2 active torsions:
REMARK  status: ('A' for Active; 'I' for Inactive)
REMARK    1  A    between atoms: C_23  and  C_25
REMARK    2  A    between atoms: C_25  and  C_27
REMARK                            x       y       z     vdW  Elec       q    Type
REMARK                         _______ _______ _______ _____ _____    ______ ____
ROOT
ATOM      1  C   UNL     1     -12.431  14.854  65.270  0.00  0.00    +0.003 C 
ATOM      2  C   UNL     1     -10.976  15.412  65.752  0.00  0.00    +0.035 C 
ATOM      3  C   UNL     1     -11.060  14.730  67.226  0.00  0.00    +0.180 C 
ATOM      4  O   UNL     1     -12.344  14.788  67.680  0.00  0.00    -0.218 OA
ATOM      5  C   UNL     1     -10.342  13.523  67.148  0.00  0.00    +0.035 C 
ATOM      6  C   UNL     1     -10.990  13.018  65.749  0.00  0.00    +0.004 C 
ATOM      7  C   UNL     1      -9.805  11.829  65.706  0.00  0.00    +0.019 C 
ATOM      8  C   UNL     1     -10.938  10.654  66.064  0.00  0.00    +0.039 C 
ATOM      9  C   UNL     1     -11.627  11.369  67.453  0.00  0.00    +0.153 C 
ATOM     10  O   UNL     1     -11.252  10.279  68.432  0.00  0.00    -0.223 OA
ATOM     11  C   UNL     1      -9.838   9.670  66.672  0.00  0.00    +0.036 C 
ATOM     12  C   UNL     1      -9.088   9.489  65.369  0.00  0.00    -0.037 C 
ATOM     13  C   UNL     1      -8.197   8.494  65.429  0.00  0.00    +0.034 C 
ATOM     14  C   UNL     1      -8.476   7.284  66.217  0.00  0.00    +0.195 C 
ATOM     15  C   UNL     1      -9.878   7.197  66.653  0.00  0.00    +0.038 C 
ATOM     16  O   UNL     1      -7.722   6.266  66.179  0.00  0.00    -0.287 OA
ATOM     17  C   UNL     1      -9.591   9.985  64.092  0.00  0.00    +0.039 C 
ATOM     18  C   UNL     1      -8.897  10.211  67.596  0.00  0.00    +0.009 C 
ATOM     19  C   UNL     1     -10.450   8.367  66.952  0.00  0.00    -0.020 C 
ATOM     20  C   UNL     1      -9.815  11.548  64.085  0.00  0.00    +0.084 C 
ATOM     21 CL   UNL     1     -11.650  11.438  63.767  0.00  0.00    -0.115 Cl
ATOM     22  C   UNL     1      -8.881  13.882  66.875  0.00  0.00    +0.003 C 
ATOM     23  C   UNL     1     -10.393  12.335  67.922  0.00  0.00    +0.036 C 
ATOM     24  C   UNL     1     -10.176  14.196  65.006  0.00  0.00    +0.003 C 
ENDROOT
BRANCH   3  25
ATOM     25  C   UNL     1     -10.311  15.726  68.068  0.00  0.00    +0.211 C 
ATOM     26  O   UNL     1     -10.151  15.476  69.262  0.00  0.00    -0.291 OA
BRANCH  25  27
ATOM     27  C   UNL     1      -9.996  17.102  67.639  0.00  0.00    +0.248 C 
ATOM     28  O   UNL     1     -10.938  18.040  68.000  0.00  0.00    -0.212 OA
ENDBRANCH  25  27
ENDBRANCH   3  25
TORSDOF 2
ENDMDL
