MODEL 1
REMARK VINA RESULT:      -7.2      0.000      0.000
REMARK  Name = 
REMARK  12 active torsions:
REMARK  status: ('A' for Active; 'I' for Inactive)
REMARK    1  A    between atoms: C_2  and  C_3
REMARK    2  A    between atoms: C_24  and  C_25
REMARK    3  A    between atoms: C_25  and  C_26
REMARK    4  A    between atoms: C_26  and  C_27
REMARK    5  A    between atoms: C_30  and  C_31
REMARK    6  A    between atoms: C_31  and  C_32
REMARK    7  A    between atoms: C_32  and  C_33
REMARK    8  A    between atoms: C_33  and  O_35
REMARK    9  A    between atoms: C_44  and  C_45
REMARK   10  A    between atoms: C_45  and  O_47
REMARK   11  A    between atoms: C_49  and  C_50
REMARK   12  A    between atoms: C_50  and  O_52
REMARK                            x       y       z     vdW  Elec       q    Type
REMARK                         _______ _______ _______ _____ _____    ______ ____
ROOT
ATOM      1  C   UNL     1     -12.875   9.890  71.200  0.00  0.00    +0.015 A 
ATOM      2  C   UNL     1     -11.910   9.362  70.353  0.00  0.00    +0.082 A 
ATOM      3  N   UNL     1     -11.312  10.312  69.610  0.00  0.00    -0.246 NA
ATOM      4  C   UNL     1     -11.852  11.454  70.088  0.00  0.00    +0.079 A 
ATOM      5  C   UNL     1     -12.069  12.462  69.153  0.00  0.00    +0.038 C 
ATOM      6  C   UNL     1     -11.027  12.696  68.298  0.00  0.00    +0.079 C 
ATOM      7  C   UNL     1     -10.769  13.976  67.617  0.00  0.00    +0.001 C 
ATOM      8  C   UNL     1     -11.613  14.904  67.142  0.00  0.00    -0.003 C 
ATOM      9  C   UNL     1     -10.827  16.068  66.680  0.00  0.00    +0.002 C 
ATOM     10  C   UNL     1      -9.575  16.000  67.146  0.00  0.00    +0.064 C 
ATOM     11  C   UNL     1      -8.688  14.857  66.426  0.00  0.00    +0.136 C 
ATOM     12  C   UNL     1      -9.690  13.629  66.756  0.00  0.00    +0.070 C 
ATOM     13  C   UNL     1     -10.272  13.188  65.420  0.00  0.00    +0.011 C 
ATOM     14  C   UNL     1      -9.016  12.565  67.486  0.00  0.00    +0.064 C 
ATOM     15  C   UNL     1      -7.791  11.901  67.465  0.00  0.00    +0.034 C 
ATOM     16  C   UNL     1      -7.681  10.543  67.171  0.00  0.00    +0.078 A 
ATOM     17  C   UNL     1      -6.831   9.822  66.331  0.00  0.00    -0.007 A 
ATOM     18  C   UNL     1      -5.429  10.149  66.069  0.00  0.00    +0.032 C 
ATOM     19  C   UNL     1      -7.611   9.004  65.520  0.00  0.00    -0.006 A 
ATOM     20  C   UNL     1      -8.803   8.915  66.236  0.00  0.00    +0.079 A 
ATOM     21  C   UNL     1      -9.733   7.880  66.273  0.00  0.00    +0.038 C 
ATOM     22  C   UNL     1     -10.230   7.376  67.469  0.00  0.00    +0.079 C 
ATOM     23  C   UNL     1     -10.352   6.081  67.961  0.00  0.00    -0.006 C 
ATOM     24  C   UNL     1     -10.327   6.237  69.340  0.00  0.00    -0.007 C 
ATOM     25  C   UNL     1     -10.178   5.157  70.358  0.00  0.00    +0.032 C 
ATOM     26  C   UNL     1     -10.546   7.594  69.568  0.00  0.00    +0.079 C 
ATOM     27  N   UNL     1     -10.396   8.297  68.448  0.00  0.00    -0.246 NA
ATOM     28  N   UNL     1      -8.813   9.797  67.250  0.00  0.00    -0.246 NA
ATOM     29  N   UNL     1      -9.990  11.841  68.106  0.00  0.00    -0.250 NA
ATOM     30  C   UNL     1     -11.333   8.112  70.563  0.00  0.00    +0.038 C 
ATOM     31  C   UNL     1     -12.555  11.242  71.254  0.00  0.00    -0.003 A 
ATOM     32  C   UNL     1     -13.187  12.273  72.139  0.00  0.00    +0.033 C 
ENDROOT
BRANCH  11  33
ATOM     33  C   UNL     1      -7.721  14.631  67.689  0.00  0.00    +0.322 C 
ATOM     34  O   UNL     1      -8.027  15.008  68.797  0.00  0.00    -0.250 OA
BRANCH  33  35
ATOM     35  O   UNL     1      -6.417  14.900  67.250  0.00  0.00    -0.444 OA
ATOM     36  C   UNL     1      -5.419  15.060  68.223  0.00  0.00    +0.256 C 
ENDBRANCH  33  35
ENDBRANCH  11  33
BRANCH  10  37
ATOM     37  C   UNL     1      -8.847  17.178  67.612  0.00  0.00    +0.338 C 
ATOM     38  O   UNL     1      -8.066  17.798  66.827  0.00  0.00    -0.245 OA
BRANCH  37  39
ATOM     39  O   UNL     1      -9.280  17.953  68.692  0.00  0.00    -0.442 OA
ATOM     40  C   UNL     1      -9.788  19.276  68.540  0.00  0.00    +0.256 C 
ENDBRANCH  37  39
ENDBRANCH  10  37
BRANCH   1  42
ATOM     41  C   UNL     1     -14.688   8.310  71.580  0.00  0.00    +0.000 C 
ATOM     42  C   UNL     1     -13.812   9.173  72.075  0.00  0.00    +0.001 C 
ENDBRANCH   1  42
BRANCH  23  43
ATOM     43  C   UNL     1     -10.009   4.812  67.243  0.00  0.00    +0.039 C 
BRANCH  43  44
ATOM     44  C   UNL     1      -8.507   4.583  67.225  0.00  0.00    +0.119 C 
BRANCH  44  45
ATOM     45  C   UNL     1      -8.079   4.774  65.807  0.00  0.00    +0.365 C 
ATOM     46  O   UNL     1      -6.838   5.359  65.541  0.00  0.00    -0.246 OA
ATOM     47  O   UNL     1      -8.942   4.634  64.916  0.00  0.00    -0.246 OA
ENDBRANCH  44  45
ENDBRANCH  43  44
ENDBRANCH  23  43
BRANCH  19  48
ATOM     48  C   UNL     1      -7.425   8.573  64.124  0.00  0.00    +0.039 C 
BRANCH  48  49
ATOM     49  C   UNL     1      -7.719   9.768  63.222  0.00  0.00    +0.114 C 
BRANCH  49  50
ATOM     50  C   UNL     1      -9.062   9.705  62.623  0.00  0.00    +0.317 C 
ATOM     51  O   UNL     1      -9.958  10.378  63.216  0.00  0.00    -0.250 OA
BRANCH  50  52
ATOM     52  O   UNL     1      -9.299   9.486  61.262  0.00  0.00    -0.444 OA
ATOM     53  C   UNL     1      -9.338   8.115  60.875  0.00  0.00    +0.256 C 
ENDBRANCH  50  52
ENDBRANCH  49  50
ENDBRANCH  48  49
ENDBRANCH  19  48
TORSDOF 12
ENDMDL
MODEL 2
REMARK VINA RESULT:      -7.1      2.193      7.602
REMARK  Name = 
REMARK  12 active torsions:
REMARK  status: ('A' for Active; 'I' for Inactive)
REMARK    1  A    between atoms: C_2  and  C_3
REMARK    2  A    between atoms: C_24  and  C_25
REMARK    3  A    between atoms: C_25  and  C_26
REMARK    4  A    between atoms: C_26  and  C_27
REMARK    5  A    between atoms: C_30  and  C_31
REMARK    6  A    between atoms: C_31  and  C_32
REMARK    7  A    between atoms: C_32  and  C_33
REMARK    8  A    between atoms: C_33  and  O_35
REMARK    9  A    between atoms: C_44  and  C_45
REMARK   10  A    between atoms: C_45  and  O_47
REMARK   11  A    between atoms: C_49  and  C_50
REMARK   12  A    between atoms: C_50  and  O_52
REMARK                            x       y       z     vdW  Elec       q    Type
REMARK                         _______ _______ _______ _____ _____    ______ ____
ROOT
ATOM      1  C   UNL     1      -9.507   7.185  71.502  0.00  0.00    +0.015 A 
ATOM      2  C   UNL     1     -10.221   8.238  70.946  0.00  0.00    +0.082 A 
ATOM      3  N   UNL     1      -9.709   8.632  69.765  0.00  0.00    -0.246 NA
ATOM      4  C   UNL     1      -8.723   7.735  69.549  0.00  0.00    +0.079 A 
ATOM      5  C   UNL     1      -7.584   8.224  68.918  0.00  0.00    +0.038 C 
ATOM      6  C   UNL     1      -7.817   9.014  67.826  0.00  0.00    +0.079 C 
ATOM      7  C   UNL     1      -6.877   9.206  66.709  0.00  0.00    +0.001 C 
ATOM      8  C   UNL     1      -5.536   9.248  66.688  0.00  0.00    -0.003 C 
ATOM      9  C   UNL     1      -5.087   9.318  65.281  0.00  0.00    +0.002 C 
ATOM     10  C   UNL     1      -6.091   9.006  64.454  0.00  0.00    +0.064 C 
ATOM     11  C   UNL     1      -7.223  10.156  64.363  0.00  0.00    +0.136 C 
ATOM     12  C   UNL     1      -7.535  10.214  65.951  0.00  0.00    +0.070 C 
ATOM     13  C   UNL     1      -7.035  11.570  66.430  0.00  0.00    +0.011 C 
ATOM     14  C   UNL     1      -8.943   9.970  66.233  0.00  0.00    +0.064 C 
ATOM     15  C   UNL     1     -10.186  10.324  65.712  0.00  0.00    +0.034 C 
ATOM     16  C   UNL     1     -11.103  11.095  66.422  0.00  0.00    +0.078 A 
ATOM     17  C   UNL     1     -11.881  12.201  66.075  0.00  0.00    -0.007 A 
ATOM     18  C   UNL     1     -12.473  12.435  64.758  0.00  0.00    +0.032 C 
ATOM     19  C   UNL     1     -11.684  13.190  67.034  0.00  0.00    -0.006 A 
ATOM     20  C   UNL     1     -11.209  12.465  68.124  0.00  0.00    +0.079 A 
ATOM     21  C   UNL     1     -11.338  12.732  69.484  0.00  0.00    +0.038 C 
ATOM     22  C   UNL     1     -11.753  11.764  70.391  0.00  0.00    +0.079 C 
ATOM     23  C   UNL     1     -12.731  11.763  71.379  0.00  0.00    -0.006 C 
ATOM     24  C   UNL     1     -13.082  10.428  71.510  0.00  0.00    -0.007 C 
ATOM     25  C   UNL     1     -14.255   9.881  72.253  0.00  0.00    +0.032 C 
ATOM     26  C   UNL     1     -12.074   9.709  70.870  0.00  0.00    +0.079 C 
ATOM     27  N   UNL     1     -11.323  10.509  70.118  0.00  0.00    -0.246 NA
ATOM     28  N   UNL     1     -10.917  11.204  67.763  0.00  0.00    -0.246 NA
ATOM     29  N   UNL     1      -9.016   9.580  67.536  0.00  0.00    -0.250 NA
ATOM     30  C   UNL     1     -11.528   8.537  71.324  0.00  0.00    +0.038 C 
ATOM     31  C   UNL     1      -8.793   6.673  70.425  0.00  0.00    -0.003 A 
ATOM     32  C   UNL     1      -7.956   5.430  70.421  0.00  0.00    +0.033 C 
ENDROOT
BRANCH  11  33
ATOM     33  C   UNL     1      -8.410   9.137  63.995  0.00  0.00    +0.322 C 
ATOM     34  O   UNL     1      -8.305   7.947  64.183  0.00  0.00    -0.250 OA
BRANCH  33  35
ATOM     35  O   UNL     1      -8.929   9.555  62.762  0.00  0.00    -0.444 OA
ATOM     36  C   UNL     1      -8.589  10.838  62.308  0.00  0.00    +0.256 C 
ENDBRANCH  33  35
ENDBRANCH  11  33
BRANCH  10  37
ATOM     37  C   UNL     1      -5.893   8.204  63.249  0.00  0.00    +0.338 C 
ATOM     38  O   UNL     1      -5.670   8.770  62.135  0.00  0.00    -0.245 OA
BRANCH  37  39
ATOM     39  O   UNL     1      -5.469   6.873  63.290  0.00  0.00    -0.442 OA
ATOM     40  C   UNL     1      -5.993   5.866  62.429  0.00  0.00    +0.256 C 
ENDBRANCH  37  39
ENDBRANCH  10  37
BRANCH   1  42
ATOM     41  C   UNL     1      -9.239   7.146  73.921  0.00  0.00    +0.000 C 
ATOM     42  C   UNL     1      -9.682   6.559  72.819  0.00  0.00    +0.001 C 
ENDBRANCH   1  42
BRANCH  23  43
ATOM     43  C   UNL     1     -13.600  12.915  71.782  0.00  0.00    +0.039 C 
BRANCH  43  44
ATOM     44  C   UNL     1     -12.777  14.026  72.411  0.00  0.00    +0.119 C 
BRANCH  44  45
ATOM     45  C   UNL     1     -13.302  15.302  71.839  0.00  0.00    +0.365 C 
ATOM     46  O   UNL     1     -14.357  15.956  72.479  0.00  0.00    -0.246 OA
ATOM     47  O   UNL     1     -12.948  15.607  70.681  0.00  0.00    -0.246 OA
ENDBRANCH  44  45
ENDBRANCH  43  44
ENDBRANCH  23  43
BRANCH  19  48
ATOM     48  C   UNL     1     -11.653  14.658  66.911  0.00  0.00    +0.039 C 
BRANCH  48  49
ATOM     49  C   UNL     1     -10.207  15.076  66.659  0.00  0.00    +0.114 C 
BRANCH  49  50
ATOM     50  C   UNL     1     -10.094  16.118  65.626  0.00  0.00    +0.317 C 
ATOM     51  O   UNL     1     -10.928  16.038  64.674  0.00  0.00    -0.250 OA
BRANCH  50  52
ATOM     52  O   UNL     1      -9.602  17.405  65.868  0.00  0.00    -0.444 OA
ATOM     53  C   UNL     1     -10.311  18.138  66.863  0.00  0.00    +0.256 C 
ENDBRANCH  50  52
ENDBRANCH  49  50
ENDBRANCH  48  49
ENDBRANCH  19  48
TORSDOF 12
ENDMDL
MODEL 3
REMARK VINA RESULT:      -6.5      1.212      1.728
REMARK  Name = 
REMARK  12 active torsions:
REMARK  status: ('A' for Active; 'I' for Inactive)
REMARK    1  A    between atoms: C_2  and  C_3
REMARK    2  A    between atoms: C_24  and  C_25
REMARK    3  A    between atoms: C_25  and  C_26
REMARK    4  A    between atoms: C_26  and  C_27
REMARK    5  A    between atoms: C_30  and  C_31
REMARK    6  A    between atoms: C_31  and  C_32
REMARK    7  A    between atoms: C_32  and  C_33
REMARK    8  A    between atoms: C_33  and  O_35
REMARK    9  A    between atoms: C_44  and  C_45
REMARK   10  A    between atoms: C_45  and  O_47
REMARK   11  A    between atoms: C_49  and  C_50
REMARK   12  A    between atoms: C_50  and  O_52
REMARK                            x       y       z     vdW  Elec       q    Type
REMARK                         _______ _______ _______ _____ _____    ______ ____
ROOT
ATOM      1  C   UNL     1     -12.939   9.784  71.316  0.00  0.00    +0.015 A 
ATOM      2  C   UNL     1     -11.954   9.235  70.507  0.00  0.00    +0.082 A 
ATOM      3  N   UNL     1     -11.345  10.163  69.747  0.00  0.00    -0.246 NA
ATOM      4  C   UNL     1     -11.902  11.317  70.175  0.00  0.00    +0.079 A 
ATOM      5  C   UNL     1     -12.104  12.292  69.203  0.00  0.00    +0.038 C 
ATOM      6  C   UNL     1     -11.045  12.505  68.363  0.00  0.00    +0.079 C 
ATOM      7  C   UNL     1     -10.779  13.763  67.646  0.00  0.00    +0.001 C 
ATOM      8  C   UNL     1     -11.619  14.669  67.122  0.00  0.00    -0.003 C 
ATOM      9  C   UNL     1     -10.829  15.822  66.639  0.00  0.00    +0.002 C 
ATOM     10  C   UNL     1      -9.588  15.778  67.134  0.00  0.00    +0.064 C 
ATOM     11  C   UNL     1      -8.678  14.618  66.471  0.00  0.00    +0.136 C 
ATOM     12  C   UNL     1      -9.680  13.395  66.821  0.00  0.00    +0.070 C 
ATOM     13  C   UNL     1     -10.230  12.906  65.487  0.00  0.00    +0.011 C 
ATOM     14  C   UNL     1      -9.016  12.360  67.600  0.00  0.00    +0.064 C 
ATOM     15  C   UNL     1      -7.787  11.703  67.627  0.00  0.00    +0.034 C 
ATOM     16  C   UNL     1      -7.663  10.338  67.381  0.00  0.00    +0.078 A 
ATOM     17  C   UNL     1      -6.790   9.595  66.584  0.00  0.00    -0.007 A 
ATOM     18  C   UNL     1      -5.385   9.921  66.342  0.00  0.00    +0.032 C 
ATOM     19  C   UNL     1      -7.547   8.745  65.784  0.00  0.00    -0.006 A 
ATOM     20  C   UNL     1      -8.754   8.672  66.476  0.00  0.00    +0.079 A 
ATOM     21  C   UNL     1      -9.680   7.633  66.527  0.00  0.00    +0.038 C 
ATOM     22  C   UNL     1     -10.199   7.165  67.728  0.00  0.00    +0.079 C 
ATOM     23  C   UNL     1     -10.324   5.886  68.260  0.00  0.00    -0.006 C 
ATOM     24  C   UNL     1     -10.331   6.088  69.633  0.00  0.00    -0.007 C 
ATOM     25  C   UNL     1     -10.198   5.043  70.690  0.00  0.00    +0.032 C 
ATOM     26  C   UNL     1     -10.562   7.451  69.812  0.00  0.00    +0.079 C 
ATOM     27  N   UNL     1     -10.392   8.117  68.673  0.00  0.00    -0.246 NA
ATOM     28  N   UNL     1      -8.792   9.587  67.460  0.00  0.00    -0.246 NA
ATOM     29  N   UNL     1      -9.999  11.651  68.222  0.00  0.00    -0.250 NA
ATOM     30  C   UNL     1     -11.374   7.996  70.771  0.00  0.00    +0.038 C 
ATOM     31  C   UNL     1     -12.629  11.139  71.331  0.00  0.00    -0.003 A 
ATOM     32  C   UNL     1     -13.287  12.194  72.168  0.00  0.00    +0.033 C 
ENDROOT
BRANCH  11  33
ATOM     33  C   UNL     1      -7.737  14.440  67.762  0.00  0.00    +0.322 C 
ATOM     34  O   UNL     1      -8.061  14.868  68.846  0.00  0.00    -0.250 OA
BRANCH  33  35
ATOM     35  O   UNL     1      -6.423  14.678  67.338  0.00  0.00    -0.444 OA
ATOM     36  C   UNL     1      -5.546  15.300  68.239  0.00  0.00    +0.256 C 
ENDBRANCH  33  35
ENDBRANCH  11  33
BRANCH  10  37
ATOM     37  C   UNL     1      -8.877  16.975  67.576  0.00  0.00    +0.338 C 
ATOM     38  O   UNL     1      -8.103  17.590  66.780  0.00  0.00    -0.245 OA
BRANCH  37  39
ATOM     39  O   UNL     1      -9.322  17.767  68.639  0.00  0.00    -0.442 OA
ATOM     40  C   UNL     1      -9.800  19.099  68.465  0.00  0.00    +0.256 C 
ENDBRANCH  37  39
ENDBRANCH  10  37
BRANCH   1  42
ATOM     41  C   UNL     1     -14.717   8.169  71.716  0.00  0.00    +0.000 C 
ATOM     42  C   UNL     1     -13.891   9.090  72.193  0.00  0.00    +0.001 C 
ENDBRANCH   1  42
BRANCH  23  43
ATOM     43  C   UNL     1      -9.959   4.597  67.592  0.00  0.00    +0.039 C 
BRANCH  43  44
ATOM     44  C   UNL     1      -8.454   4.388  67.592  0.00  0.00    +0.119 C 
BRANCH  44  45
ATOM     45  C   UNL     1      -8.241   2.920  67.765  0.00  0.00    +0.365 C 
ATOM     46  O   UNL     1      -8.622   2.311  68.963  0.00  0.00    -0.246 OA
ATOM     47  O   UNL     1      -7.508   2.339  66.937  0.00  0.00    -0.246 OA
ENDBRANCH  44  45
ENDBRANCH  43  44
ENDBRANCH  23  43
BRANCH  19  48
ATOM     48  C   UNL     1      -7.328   8.269  64.407  0.00  0.00    +0.039 C 
BRANCH  48  49
ATOM     49  C   UNL     1      -7.006   6.779  64.472  0.00  0.00    +0.114 C 
BRANCH  49  50
ATOM     50  C   UNL     1      -7.961   5.962  63.705  0.00  0.00    +0.317 C 
ATOM     51  O   UNL     1      -7.879   6.065  62.444  0.00  0.00    -0.250 OA
BRANCH  50  52
ATOM     52  O   UNL     1      -8.492   4.752  64.161  0.00  0.00    -0.444 OA
ATOM     53  C   UNL     1      -7.933   3.588  63.558  0.00  0.00    +0.256 C 
ENDBRANCH  50  52
ENDBRANCH  49  50
ENDBRANCH  48  49
ENDBRANCH  19  48
TORSDOF 12
ENDMDL
MODEL 4
REMARK VINA RESULT:      -6.4      3.416      9.231
REMARK  Name = 
REMARK  12 active torsions:
REMARK  status: ('A' for Active; 'I' for Inactive)
REMARK    1  A    between atoms: C_2  and  C_3
REMARK    2  A    between atoms: C_24  and  C_25
REMARK    3  A    between atoms: C_25  and  C_26
REMARK    4  A    between atoms: C_26  and  C_27
REMARK    5  A    between atoms: C_30  and  C_31
REMARK    6  A    between atoms: C_31  and  C_32
REMARK    7  A    between atoms: C_32  and  C_33
REMARK    8  A    between atoms: C_33  and  O_35
REMARK    9  A    between atoms: C_44  and  C_45
REMARK   10  A    between atoms: C_45  and  O_47
REMARK   11  A    between atoms: C_49  and  C_50
REMARK   12  A    between atoms: C_50  and  O_52
REMARK                            x       y       z     vdW  Elec       q    Type
REMARK                         _______ _______ _______ _____ _____    ______ ____
ROOT
ATOM      1  C   UNL     1     -10.778  12.003  65.299  0.00  0.00    +0.015 A 
ATOM      2  C   UNL     1     -10.740  11.754  66.664  0.00  0.00    +0.082 A 
ATOM      3  N   UNL     1     -10.173  10.566  66.948  0.00  0.00    -0.246 NA
ATOM      4  C   UNL     1      -9.766  10.128  65.738  0.00  0.00    +0.079 A 
ATOM      5  C   UNL     1      -9.852   8.755  65.527  0.00  0.00    +0.038 C 
ATOM      6  C   UNL     1      -9.377   7.980  66.548  0.00  0.00    +0.079 C 
ATOM      7  C   UNL     1      -8.862   6.608  66.394  0.00  0.00    +0.001 C 
ATOM      8  C   UNL     1      -9.229   5.621  65.564  0.00  0.00    -0.003 C 
ATOM      9  C   UNL     1      -8.287   4.493  65.724  0.00  0.00    +0.002 C 
ATOM     10  C   UNL     1      -7.194   4.887  66.386  0.00  0.00    +0.064 C 
ATOM     11  C   UNL     1      -7.462   5.152  67.958  0.00  0.00    +0.136 C 
ATOM     12  C   UNL     1      -8.655   6.227  67.749  0.00  0.00    +0.070 C 
ATOM     13  C   UNL     1      -9.924   5.551  68.251  0.00  0.00    +0.011 C 
ATOM     14  C   UNL     1      -8.361   7.493  68.407  0.00  0.00    +0.064 C 
ATOM     15  C   UNL     1      -7.817   7.941  69.608  0.00  0.00    +0.034 C 
ATOM     16  C   UNL     1      -8.559   8.657  70.545  0.00  0.00    +0.078 A 
ATOM     17  C   UNL     1      -8.697   8.545  71.929  0.00  0.00    -0.007 A 
ATOM     18  C   UNL     1      -7.637   8.141  72.853  0.00  0.00    +0.032 C 
ATOM     19  C   UNL     1     -10.055   8.510  72.230  0.00  0.00    -0.006 A 
ATOM     20  C   UNL     1     -10.632   9.083  71.099  0.00  0.00    +0.079 A 
ATOM     21  C   UNL     1     -11.812   9.812  70.984  0.00  0.00    +0.038 C 
ATOM     22  C   UNL     1     -11.868  11.026  70.309  0.00  0.00    +0.079 C 
ATOM     23  C   UNL     1     -12.380  12.270  70.659  0.00  0.00    -0.006 C 
ATOM     24  C   UNL     1     -11.640  13.168  69.903  0.00  0.00    -0.007 C 
ATOM     25  C   UNL     1     -11.600  14.651  70.063  0.00  0.00    +0.032 C 
ATOM     26  C   UNL     1     -11.007  12.403  68.925  0.00  0.00    +0.079 C 
ATOM     27  N   UNL     1     -11.067  11.107  69.220  0.00  0.00    -0.246 NA
ATOM     28  N   UNL     1      -9.721   9.218  70.120  0.00  0.00    -0.246 NA
ATOM     29  N   UNL     1      -9.144   8.433  67.806  0.00  0.00    -0.250 NA
ATOM     30  C   UNL     1     -10.852  12.767  67.613  0.00  0.00    +0.038 C 
ATOM     31  C   UNL     1      -9.839  11.118  64.781  0.00  0.00    -0.003 A 
ATOM     32  C   UNL     1      -9.365  11.052  63.361  0.00  0.00    +0.033 C 
ENDROOT
BRANCH  11  33
ATOM     33  C   UNL     1      -6.284   6.234  68.109  0.00  0.00    +0.322 C 
ATOM     34  O   UNL     1      -5.794   6.776  67.145  0.00  0.00    -0.250 OA
BRANCH  33  35
ATOM     35  O   UNL     1      -5.411   5.743  69.089  0.00  0.00    -0.444 OA
ATOM     36  C   UNL     1      -5.805   4.604  69.807  0.00  0.00    +0.256 C 
ENDBRANCH  33  35
ENDBRANCH  11  33
BRANCH  10  37
ATOM     37  C   UNL     1      -5.854   4.425  66.034  0.00  0.00    +0.338 C 
ATOM     38  O   UNL     1      -5.379   3.376  66.568  0.00  0.00    -0.245 OA
BRANCH  37  39
ATOM     39  O   UNL     1      -5.231   4.766  64.829  0.00  0.00    -0.442 OA
ATOM     40  C   UNL     1      -4.995   3.824  63.787  0.00  0.00    +0.256 C 
ENDBRANCH  37  39
ENDBRANCH  10  37
BRANCH   1  42
ATOM     41  C   UNL     1     -12.359  12.919  63.690  0.00  0.00    +0.000 C 
ATOM     42  C   UNL     1     -11.412  13.125  64.594  0.00  0.00    +0.001 C 
ENDBRANCH   1  42
BRANCH  23  43
ATOM     43  C   UNL     1     -13.107  12.619  71.921  0.00  0.00    +0.039 C 
BRANCH  43  44
ATOM     44  C   UNL     1     -14.129  13.716  71.678  0.00  0.00    +0.119 C 
BRANCH  44  45
ATOM     45  C   UNL     1     -13.713  14.866  72.536  0.00  0.00    +0.365 C 
ATOM     46  O   UNL     1     -12.800  14.651  73.571  0.00  0.00    -0.246 OA
ATOM     47  O   UNL     1     -14.379  15.920  72.457  0.00  0.00    -0.246 OA
ENDBRANCH  44  45
ENDBRANCH  43  44
ENDBRANCH  23  43
BRANCH  19  48
ATOM     48  C   UNL     1     -10.790   7.789  73.284  0.00  0.00    +0.039 C 
BRANCH  48  49
ATOM     49  C   UNL     1     -10.953   6.340  72.834  0.00  0.00    +0.114 C 
BRANCH  49  50
ATOM     50  C   UNL     1     -10.152   5.405  73.641  0.00  0.00    +0.317 C 
ATOM     51  O   UNL     1     -10.771   4.829  74.586  0.00  0.00    -0.250 OA
BRANCH  50  52
ATOM     52  O   UNL     1      -9.046   4.703  73.152  0.00  0.00    -0.444 OA
ATOM     53  C   UNL     1      -8.877   4.762  71.738  0.00  0.00    +0.256 C 
ENDBRANCH  50  52
ENDBRANCH  49  50
ENDBRANCH  48  49
ENDBRANCH  19  48
TORSDOF 12
ENDMDL
MODEL 5
REMARK VINA RESULT:      -6.3      2.657      9.042
REMARK  Name = 
REMARK  12 active torsions:
REMARK  status: ('A' for Active; 'I' for Inactive)
REMARK    1  A    between atoms: C_2  and  C_3
REMARK    2  A    between atoms: C_24  and  C_25
REMARK    3  A    between atoms: C_25  and  C_26
REMARK    4  A    between atoms: C_26  and  C_27
REMARK    5  A    between atoms: C_30  and  C_31
REMARK    6  A    between atoms: C_31  and  C_32
REMARK    7  A    between atoms: C_32  and  C_33
REMARK    8  A    between atoms: C_33  and  O_35
REMARK    9  A    between atoms: C_44  and  C_45
REMARK   10  A    between atoms: C_45  and  O_47
REMARK   11  A    between atoms: C_49  and  C_50
REMARK   12  A    between atoms: C_50  and  O_52
REMARK                            x       y       z     vdW  Elec       q    Type
REMARK                         _______ _______ _______ _____ _____    ______ ____
ROOT
ATOM      1  C   UNL     1      -3.652  12.621  68.071  0.00  0.00    +0.015 A 
ATOM      2  C   UNL     1      -4.888  13.252  68.022  0.00  0.00    +0.082 A 
ATOM      3  N   UNL     1      -5.908  12.375  68.055  0.00  0.00    -0.246 NA
ATOM      4  C   UNL     1      -5.282  11.191  68.229  0.00  0.00    +0.079 A 
ATOM      5  C   UNL     1      -5.856  10.099  67.585  0.00  0.00    +0.038 C 
ATOM      6  C   UNL     1      -7.214   9.995  67.713  0.00  0.00    +0.079 C 
ATOM      7  C   UNL     1      -7.974   8.738  67.617  0.00  0.00    +0.001 C 
ATOM      8  C   UNL     1      -7.773   7.645  66.865  0.00  0.00    -0.003 C 
ATOM      9  C   UNL     1      -8.751   6.610  67.263  0.00  0.00    +0.002 C 
ATOM     10  C   UNL     1      -9.320   6.929  68.430  0.00  0.00    +0.064 C 
ATOM     11  C   UNL     1     -10.363   8.159  68.315  0.00  0.00    +0.136 C 
ATOM     12  C   UNL     1      -9.315   9.210  67.666  0.00  0.00    +0.070 C 
ATOM     13  C   UNL     1      -9.787   9.449  66.239  0.00  0.00    +0.011 C 
ATOM     14  C   UNL     1      -9.207  10.425  68.463  0.00  0.00    +0.064 C 
ATOM     15  C   UNL     1     -10.046  11.292  69.160  0.00  0.00    +0.034 C 
ATOM     16  C   UNL     1     -10.218  12.624  68.791  0.00  0.00    +0.078 A 
ATOM     17  C   UNL     1     -11.351  13.425  68.637  0.00  0.00    -0.007 A 
ATOM     18  C   UNL     1     -12.564  13.335  69.449  0.00  0.00    +0.032 C 
ATOM     19  C   UNL     1     -11.287  14.036  67.388  0.00  0.00    -0.006 A 
ATOM     20  C   UNL     1      -9.930  13.961  67.083  0.00  0.00    +0.079 A 
ATOM     21  C   UNL     1      -9.153  14.815  66.305  0.00  0.00    +0.038 C 
ATOM     22  C   UNL     1      -7.927  15.304  66.743  0.00  0.00    +0.079 C 
ATOM     23  C   UNL     1      -7.395  16.587  66.793  0.00  0.00    -0.006 C 
ATOM     24  C   UNL     1      -6.470  16.532  67.826  0.00  0.00    -0.007 C 
ATOM     25  C   UNL     1      -5.784  17.688  68.474  0.00  0.00    +0.032 C 
ATOM     26  C   UNL     1      -6.266  15.176  68.076  0.00  0.00    +0.079 C 
ATOM     27  N   UNL     1      -7.205  14.437  67.492  0.00  0.00    -0.246 NA
ATOM     28  N   UNL     1      -9.292  13.162  67.956  0.00  0.00    -0.246 NA
ATOM     29  N   UNL     1      -8.020  11.005  68.128  0.00  0.00    -0.250 NA
ATOM     30  C   UNL     1      -5.055  14.596  68.349  0.00  0.00    +0.038 C 
ATOM     31  C   UNL     1      -3.954  11.354  68.557  0.00  0.00    -0.003 A 
ATOM     32  C   UNL     1      -2.971  10.290  68.943  0.00  0.00    +0.033 C 
ENDROOT
BRANCH  11  33
ATOM     33  C   UNL     1     -10.163   8.639  69.836  0.00  0.00    +0.322 C 
ATOM     34  O   UNL     1      -9.208   8.288  70.490  0.00  0.00    -0.250 OA
BRANCH  33  35
ATOM     35  O   UNL     1     -11.424   8.577  70.445  0.00  0.00    -0.444 OA
ATOM     36  C   UNL     1     -11.519   8.958  71.792  0.00  0.00    +0.256 C 
ENDBRANCH  33  35
ENDBRANCH  11  33
BRANCH  10  37
ATOM     37  C   UNL     1      -9.615   5.933  69.457  0.00  0.00    +0.338 C 
ATOM     38  O   UNL     1     -10.775   5.425  69.540  0.00  0.00    -0.245 OA
BRANCH  37  39
ATOM     39  O   UNL     1      -8.623   5.153  70.057  0.00  0.00    -0.442 OA
ATOM     40  C   UNL     1      -8.766   3.752  70.275  0.00  0.00    +0.256 C 
ENDBRANCH  37  39
ENDBRANCH  10  37
BRANCH   1  42
ATOM     41  C   UNL     1      -1.938  13.820  66.826  0.00  0.00    +0.000 C 
ATOM     42  C   UNL     1      -2.316  13.219  67.945  0.00  0.00    +0.001 C 
ENDBRANCH   1  42
BRANCH  23  43
ATOM     43  C   UNL     1      -8.034  17.845  66.291  0.00  0.00    +0.039 C 
BRANCH  43  44
ATOM     44  C   UNL     1      -8.939  18.457  67.347  0.00  0.00    +0.119 C 
BRANCH  44  45
ATOM     45  C   UNL     1     -10.335  18.111  66.944  0.00  0.00    +0.365 C 
ATOM     46  O   UNL     1     -11.211  17.587  67.897  0.00  0.00    -0.246 OA
ATOM     47  O   UNL     1     -10.593  18.071  65.723  0.00  0.00    -0.246 OA
ENDBRANCH  44  45
ENDBRANCH  43  44
ENDBRANCH  23  43
BRANCH  19  48
ATOM     48  C   UNL     1     -12.352  14.397  66.437  0.00  0.00    +0.039 C 
BRANCH  48  49
ATOM     49  C   UNL     1     -12.591  13.197  65.525  0.00  0.00    +0.114 C 
BRANCH  49  50
ATOM     50  C   UNL     1     -12.474  13.541  64.098  0.00  0.00    +0.317 C 
ATOM     51  O   UNL     1     -12.498  14.780  63.830  0.00  0.00    -0.250 OA
BRANCH  50  52
ATOM     52  O   UNL     1     -11.803  12.752  63.159  0.00  0.00    -0.444 OA
ATOM     53  C   UNL     1     -10.580  12.183  63.620  0.00  0.00    +0.256 C 
ENDBRANCH  50  52
ENDBRANCH  49  50
ENDBRANCH  48  49
ENDBRANCH  19  48
TORSDOF 12
ENDMDL
MODEL 6
REMARK VINA RESULT:      -6.2      3.606      9.913
REMARK  Name = 
REMARK  12 active torsions:
REMARK  status: ('A' for Active; 'I' for Inactive)
REMARK    1  A    between atoms: C_2  and  C_3
REMARK    2  A    between atoms: C_24  and  C_25
REMARK    3  A    between atoms: C_25  and  C_26
REMARK    4  A    between atoms: C_26  and  C_27
REMARK    5  A    between atoms: C_30  and  C_31
REMARK    6  A    between atoms: C_31  and  C_32
REMARK    7  A    between atoms: C_32  and  C_33
REMARK    8  A    between atoms: C_33  and  O_35
REMARK    9  A    between atoms: C_44  and  C_45
REMARK   10  A    between atoms: C_45  and  O_47
REMARK   11  A    between atoms: C_49  and  C_50
REMARK   12  A    between atoms: C_50  and  O_52
REMARK                            x       y       z     vdW  Elec       q    Type
REMARK                         _______ _______ _______ _____ _____    ______ ____
ROOT
ATOM      1  C   UNL     1      -9.764  17.220  66.288  0.00  0.00    +0.015 A 
ATOM      2  C   UNL     1      -8.575  16.963  66.956  0.00  0.00    +0.082 A 
ATOM      3  N   UNL     1      -8.303  15.647  67.022  0.00  0.00    -0.246 NA
ATOM      4  C   UNL     1      -9.296  15.097  66.290  0.00  0.00    +0.079 A 
ATOM      5  C   UNL     1      -9.768  13.865  66.734  0.00  0.00    +0.038 C 
ATOM      6  C   UNL     1      -8.801  12.957  67.067  0.00  0.00    +0.079 C 
ATOM      7  C   UNL     1      -8.975  11.495  67.041  0.00  0.00    +0.001 C 
ATOM      8  C   UNL     1     -10.047  10.733  67.306  0.00  0.00    -0.003 C 
ATOM      9  C   UNL     1      -9.721   9.327  66.986  0.00  0.00    +0.002 C 
ATOM     10  C   UNL     1      -8.607   9.263  66.248  0.00  0.00    +0.064 C 
ATOM     11  C   UNL     1      -7.266   9.596  67.088  0.00  0.00    +0.136 C 
ATOM     12  C   UNL     1      -7.750  11.051  67.611  0.00  0.00    +0.070 C 
ATOM     13  C   UNL     1      -7.948  10.913  69.115  0.00  0.00    +0.011 C 
ATOM     14  C   UNL     1      -6.812  12.099  67.233  0.00  0.00    +0.064 C 
ATOM     15  C   UNL     1      -5.433  12.291  67.172  0.00  0.00    +0.034 C 
ATOM     16  C   UNL     1      -4.773  13.230  67.962  0.00  0.00    +0.078 A 
ATOM     17  C   UNL     1      -3.615  13.167  68.739  0.00  0.00    -0.007 A 
ATOM     18  C   UNL     1      -2.426  12.376  68.418  0.00  0.00    +0.032 C 
ATOM     19  C   UNL     1      -3.913  13.657  70.006  0.00  0.00    -0.006 A 
ATOM     20  C   UNL     1      -5.056  14.419  69.776  0.00  0.00    +0.079 A 
ATOM     21  C   UNL     1      -5.513  15.548  70.450  0.00  0.00    +0.038 C 
ATOM     22  C   UNL     1      -5.919  16.695  69.778  0.00  0.00    +0.079 C 
ATOM     23  C   UNL     1      -5.591  18.037  69.933  0.00  0.00    -0.006 C 
ATOM     24  C   UNL     1      -5.798  18.586  68.676  0.00  0.00    -0.007 C 
ATOM     25  C   UNL     1      -5.370  19.937  68.209  0.00  0.00    +0.032 C 
ATOM     26  C   UNL     1      -6.549  17.645  67.974  0.00  0.00    +0.079 C 
ATOM     27  N   UNL     1      -6.546  16.470  68.599  0.00  0.00    -0.246 NA
ATOM     28  N   UNL     1      -5.530  14.199  68.538  0.00  0.00    -0.246 NA
ATOM     29  N   UNL     1      -7.500  13.274  67.288  0.00  0.00    -0.250 NA
ATOM     30  C   UNL     1      -7.590  17.933  67.131  0.00  0.00    +0.038 C 
ATOM     31  C   UNL     1     -10.000  16.046  65.582  0.00  0.00    -0.003 A 
ATOM     32  C   UNL     1     -11.084  15.815  64.573  0.00  0.00    +0.033 C 
ENDROOT
BRANCH  11  33
ATOM     33  C   UNL     1      -6.449  10.138  65.815  0.00  0.00    +0.322 C 
ATOM     34  O   UNL     1      -7.014  10.554  64.829  0.00  0.00    -0.250 OA
BRANCH  33  35
ATOM     35  O   UNL     1      -5.375   9.258  65.622  0.00  0.00    -0.444 OA
ATOM     36  C   UNL     1      -4.806   8.661  66.757  0.00  0.00    +0.256 C 
ENDBRANCH  33  35
ENDBRANCH  11  33
BRANCH  10  37
ATOM     37  C   UNL     1      -8.452   8.322  65.142  0.00  0.00    +0.338 C 
ATOM     38  O   UNL     1      -8.234   7.093  65.373  0.00  0.00    -0.245 OA
BRANCH  37  39
ATOM     39  O   UNL     1      -8.979   8.562  63.869  0.00  0.00    -0.442 OA
ATOM     40  C   UNL     1      -8.276   8.252  62.669  0.00  0.00    +0.256 C 
ENDBRANCH  37  39
ENDBRANCH  10  37
BRANCH   1  42
ATOM     41  C   UNL     1     -10.753  19.271  67.150  0.00  0.00    +0.000 C 
ATOM     42  C   UNL     1     -10.451  18.506  66.110  0.00  0.00    +0.001 C 
ENDBRANCH   1  42
BRANCH  23  43
ATOM     43  C   UNL     1      -4.701  18.628  70.982  0.00  0.00    +0.039 C 
BRANCH  43  44
ATOM     44  C   UNL     1      -5.372  19.806  71.669  0.00  0.00    +0.119 C 
BRANCH  44  45
ATOM     45  C   UNL     1      -4.280  20.771  71.995  0.00  0.00    +0.365 C 
ATOM     46  O   UNL     1      -4.327  22.062  71.465  0.00  0.00    -0.246 OA
ATOM     47  O   UNL     1      -3.244  20.316  72.524  0.00  0.00    -0.246 OA
ENDBRANCH  44  45
ENDBRANCH  43  44
ENDBRANCH  23  43
BRANCH  19  48
ATOM     48  C   UNL     1      -3.406  13.266  71.333  0.00  0.00    +0.039 C 
BRANCH  48  49
ATOM     49  C   UNL     1      -4.420  12.314  71.960  0.00  0.00    +0.114 C 
BRANCH  49  50
ATOM     50  C   UNL     1      -4.754  12.678  73.346  0.00  0.00    +0.317 C 
ATOM     51  O   UNL     1      -5.529  13.674  73.478  0.00  0.00    -0.250 OA
BRANCH  50  52
ATOM     52  O   UNL     1      -4.786  11.767  74.406  0.00  0.00    -0.444 OA
ATOM     53  C   UNL     1      -5.310  12.285  75.626  0.00  0.00    +0.256 C 
ENDBRANCH  50  52
ENDBRANCH  49  50
ENDBRANCH  48  49
ENDBRANCH  19  48
TORSDOF 12
ENDMDL
MODEL 7
REMARK VINA RESULT:      -6.1      2.212      8.396
REMARK  Name = 
REMARK  12 active torsions:
REMARK  status: ('A' for Active; 'I' for Inactive)
REMARK    1  A    between atoms: C_2  and  C_3
REMARK    2  A    between atoms: C_24  and  C_25
REMARK    3  A    between atoms: C_25  and  C_26
REMARK    4  A    between atoms: C_26  and  C_27
REMARK    5  A    between atoms: C_30  and  C_31
REMARK    6  A    between atoms: C_31  and  C_32
REMARK    7  A    between atoms: C_32  and  C_33
REMARK    8  A    between atoms: C_33  and  O_35
REMARK    9  A    between atoms: C_44  and  C_45
REMARK   10  A    between atoms: C_45  and  O_47
REMARK   11  A    between atoms: C_49  and  C_50
REMARK   12  A    between atoms: C_50  and  O_52
REMARK                            x       y       z     vdW  Elec       q    Type
REMARK                         _______ _______ _______ _____ _____    ______ ____
ROOT
ATOM      1  C   UNL     1     -12.649  11.301  71.236  0.00  0.00    +0.015 A 
ATOM      2  C   UNL     1     -11.830  11.442  70.124  0.00  0.00    +0.082 A 
ATOM      3  N   UNL     1     -11.036  10.371  69.939  0.00  0.00    -0.246 NA
ATOM      4  C   UNL     1     -11.451   9.517  70.899  0.00  0.00    +0.079 A 
ATOM      5  C   UNL     1     -10.464   8.728  71.480  0.00  0.00    +0.038 C 
ATOM      6  C   UNL     1      -9.596   8.141  70.601  0.00  0.00    +0.079 C 
ATOM      7  C   UNL     1      -8.846   6.900  70.860  0.00  0.00    +0.001 C 
ATOM      8  C   UNL     1      -8.323   6.411  71.995  0.00  0.00    -0.003 C 
ATOM      9  C   UNL     1      -7.797   5.055  71.728  0.00  0.00    +0.002 C 
ATOM     10  C   UNL     1      -8.264   4.594  70.563  0.00  0.00    +0.064 C 
ATOM     11  C   UNL     1      -7.606   5.322  69.279  0.00  0.00    +0.136 C 
ATOM     12  C   UNL     1      -8.004   6.830  69.716  0.00  0.00    +0.070 C 
ATOM     13  C   UNL     1      -6.694   7.533  70.046  0.00  0.00    +0.011 C 
ATOM     14  C   UNL     1      -8.790   7.499  68.688  0.00  0.00    +0.064 C 
ATOM     15  C   UNL     1      -8.802   7.619  67.300  0.00  0.00    +0.034 C 
ATOM     16  C   UNL     1      -8.583   8.833  66.652  0.00  0.00    +0.078 A 
ATOM     17  C   UNL     1      -7.781   9.196  65.568  0.00  0.00    -0.007 A 
ATOM     18  C   UNL     1      -7.500   8.351  64.407  0.00  0.00    +0.032 C 
ATOM     19  C   UNL     1      -7.017  10.298  65.941  0.00  0.00    -0.006 A 
ATOM     20  C   UNL     1      -7.739  10.819  67.012  0.00  0.00    +0.079 A 
ATOM     21  C   UNL     1      -7.833  12.135  67.454  0.00  0.00    +0.038 C 
ATOM     22  C   UNL     1      -9.056  12.735  67.733  0.00  0.00    +0.079 C 
ATOM     23  C   UNL     1      -9.617  13.944  67.338  0.00  0.00    -0.006 C 
ATOM     24  C   UNL     1     -10.985  13.723  67.406  0.00  0.00    -0.007 C 
ATOM     25  C   UNL     1     -12.061  14.601  66.860  0.00  0.00    +0.032 C 
ATOM     26  C   UNL     1     -11.140  12.555  68.152  0.00  0.00    +0.079 C 
ATOM     27  N   UNL     1      -9.984  11.909  68.272  0.00  0.00    -0.246 NA
ATOM     28  N   UNL     1      -8.703   9.964  67.394  0.00  0.00    -0.246 NA
ATOM     29  N   UNL     1      -9.449   8.519  69.306  0.00  0.00    -0.250 NA
ATOM     30  C   UNL     1     -12.107  12.345  69.100  0.00  0.00    +0.038 C 
ATOM     31  C   UNL     1     -12.628   9.933  71.483  0.00  0.00    -0.003 A 
ATOM     32  C   UNL     1     -13.457   9.197  72.491  0.00  0.00    +0.033 C 
ENDROOT
BRANCH  11  33
ATOM     33  C   UNL     1      -8.878   5.080  68.328  0.00  0.00    +0.322 C 
ATOM     34  O   UNL     1      -9.973   4.844  68.783  0.00  0.00    -0.250 OA
BRANCH  33  35
ATOM     35  O   UNL     1      -8.435   4.289  67.259  0.00  0.00    -0.444 OA
ATOM     36  C   UNL     1      -7.066   4.307  66.953  0.00  0.00    +0.256 C 
ENDBRANCH  33  35
ENDBRANCH  11  33
BRANCH  10  37
ATOM     37  C   UNL     1      -8.664   3.202  70.374  0.00  0.00    +0.338 C 
ATOM     38  O   UNL     1      -7.802   2.326  70.058  0.00  0.00    -0.245 OA
BRANCH  37  39
ATOM     39  O   UNL     1      -9.815   2.662  70.958  0.00  0.00    -0.442 OA
ATOM     40  C   UNL     1      -9.808   2.014  72.227  0.00  0.00    +0.256 C 
ENDBRANCH  37  39
ENDBRANCH  10  37
BRANCH   1  42
ATOM     41  C   UNL     1     -13.117  13.454  72.271  0.00  0.00    +0.000 C 
ATOM     42  C   UNL     1     -13.562  12.287  71.827  0.00  0.00    +0.001 C 
ENDBRANCH   1  42
BRANCH  23  43
ATOM     43  C   UNL     1      -8.969  15.006  66.504  0.00  0.00    +0.039 C 
BRANCH  43  44
ATOM     44  C   UNL     1      -8.860  16.313  67.271  0.00  0.00    +0.119 C 
BRANCH  44  45
ATOM     45  C   UNL     1      -9.702  17.298  66.528  0.00  0.00    +0.365 C 
ATOM     46  O   UNL     1     -10.265  18.374  67.218  0.00  0.00    -0.246 OA
ATOM     47  O   UNL     1     -10.072  16.991  65.375  0.00  0.00    -0.246 OA
ENDBRANCH  44  45
ENDBRANCH  43  44
ENDBRANCH  23  43
BRANCH  19  48
ATOM     48  C   UNL     1      -5.646  10.688  65.570  0.00  0.00    +0.039 C 
BRANCH  48  49
ATOM     49  C   UNL     1      -4.720  10.287  66.714  0.00  0.00    +0.114 C 
BRANCH  49  50
ATOM     50  C   UNL     1      -4.130  11.451  67.396  0.00  0.00    +0.317 C 
ATOM     51  O   UNL     1      -4.284  12.565  66.810  0.00  0.00    -0.250 OA
BRANCH  50  52
ATOM     52  O   UNL     1      -3.956  11.537  68.781  0.00  0.00    -0.444 OA
ATOM     53  C   UNL     1      -4.940  10.852  69.551  0.00  0.00    +0.256 C 
ENDBRANCH  50  52
ENDBRANCH  49  50
ENDBRANCH  48  49
ENDBRANCH  19  48
TORSDOF 12
ENDMDL
MODEL 8
REMARK VINA RESULT:      -6.1      3.603      8.189
REMARK  Name = 
REMARK  12 active torsions:
REMARK  status: ('A' for Active; 'I' for Inactive)
REMARK    1  A    between atoms: C_2  and  C_3
REMARK    2  A    between atoms: C_24  and  C_25
REMARK    3  A    between atoms: C_25  and  C_26
REMARK    4  A    between atoms: C_26  and  C_27
REMARK    5  A    between atoms: C_30  and  C_31
REMARK    6  A    between atoms: C_31  and  C_32
REMARK    7  A    between atoms: C_32  and  C_33
REMARK    8  A    between atoms: C_33  and  O_35
REMARK    9  A    between atoms: C_44  and  C_45
REMARK   10  A    between atoms: C_45  and  O_47
REMARK   11  A    between atoms: C_49  and  C_50
REMARK   12  A    between atoms: C_50  and  O_52
REMARK                            x       y       z     vdW  Elec       q    Type
REMARK                         _______ _______ _______ _____ _____    ______ ____
ROOT
ATOM      1  C   UNL     1      -9.509   4.542  66.098  0.00  0.00    +0.015 A 
ATOM      2  C   UNL     1      -9.205   5.897  66.100  0.00  0.00    +0.082 A 
ATOM      3  N   UNL     1      -9.141   6.401  67.347  0.00  0.00    -0.246 NA
ATOM      4  C   UNL     1      -9.309   5.308  68.123  0.00  0.00    +0.079 A 
ATOM      5  C   UNL     1     -10.023   5.504  69.302  0.00  0.00    +0.038 C 
ATOM      6  C   UNL     1      -9.660   6.606  70.025  0.00  0.00    +0.079 C 
ATOM      7  C   UNL     1      -9.839   6.755  71.479  0.00  0.00    +0.001 C 
ATOM      8  C   UNL     1     -10.803   6.304  72.296  0.00  0.00    -0.003 C 
ATOM      9  C   UNL     1     -10.424   6.611  73.692  0.00  0.00    +0.002 C 
ATOM     10  C   UNL     1      -9.132   6.947  73.761  0.00  0.00    +0.064 C 
ATOM     11  C   UNL     1      -8.818   8.406  73.140  0.00  0.00    +0.136 C 
ATOM     12  C   UNL     1      -9.449   8.109  71.679  0.00  0.00    +0.070 C 
ATOM     13  C   UNL     1     -10.692   8.981  71.571  0.00  0.00    +0.011 C 
ATOM     14  C   UNL     1      -8.478   8.331  70.617  0.00  0.00    +0.064 C 
ATOM     15  C   UNL     1      -7.487   9.253  70.288  0.00  0.00    +0.034 C 
ATOM     16  C   UNL     1      -7.565  10.065  69.157  0.00  0.00    +0.078 A 
ATOM     17  C   UNL     1      -7.351  11.429  68.954  0.00  0.00    -0.007 A 
ATOM     18  C   UNL     1      -6.353  12.239  69.654  0.00  0.00    +0.032 C 
ATOM     19  C   UNL     1      -8.455  11.949  68.286  0.00  0.00    -0.006 A 
ATOM     20  C   UNL     1      -9.021  10.816  67.707  0.00  0.00    +0.079 A 
ATOM     21  C   UNL     1      -9.762  10.701  66.534  0.00  0.00    +0.038 C 
ATOM     22  C   UNL     1      -9.483   9.735  65.575  0.00  0.00    +0.079 C 
ATOM     23  C   UNL     1      -9.300   9.807  64.198  0.00  0.00    -0.006 C 
ATOM     24  C   UNL     1      -8.489   8.720  63.905  0.00  0.00    -0.007 C 
ATOM     25  C   UNL     1      -7.783   8.453  62.618  0.00  0.00    +0.032 C 
ATOM     26  C   UNL     1      -8.537   7.901  65.032  0.00  0.00    +0.079 C 
ATOM     27  N   UNL     1      -9.057   8.549  66.071  0.00  0.00    -0.246 NA
ATOM     28  N   UNL     1      -8.448   9.700  68.191  0.00  0.00    -0.246 NA
ATOM     29  N   UNL     1      -8.921   7.633  69.533  0.00  0.00    -0.250 NA
ATOM     30  C   UNL     1      -8.611   6.533  65.012  0.00  0.00    +0.038 C 
ATOM     31  C   UNL     1      -9.216   4.141  67.396  0.00  0.00    -0.003 A 
ATOM     32  C   UNL     1      -9.227   2.737  67.918  0.00  0.00    +0.033 C 
ENDROOT
BRANCH  11  33
ATOM     33  C   UNL     1      -7.301   8.053  72.744  0.00  0.00    +0.322 C 
ATOM     34  O   UNL     1      -6.912   6.909  72.683  0.00  0.00    -0.250 OA
BRANCH  33  35
ATOM     35  O   UNL     1      -6.486   8.980  73.408  0.00  0.00    -0.444 OA
ATOM     36  C   UNL     1      -5.257   8.528  73.911  0.00  0.00    +0.256 C 
ENDBRANCH  33  35
ENDBRANCH  11  33
BRANCH  10  37
ATOM     37  C   UNL     1      -8.268   6.519  74.859  0.00  0.00    +0.338 C 
ATOM     38  O   UNL     1      -8.094   7.272  75.866  0.00  0.00    -0.245 OA
BRANCH  37  39
ATOM     39  O   UNL     1      -7.986   5.174  75.116  0.00  0.00    -0.442 OA
ATOM     40  C   UNL     1      -6.753   4.735  75.679  0.00  0.00    +0.256 C 
ENDBRANCH  37  39
ENDBRANCH  10  37
BRANCH   1  42
ATOM     41  C   UNL     1     -10.886   3.793  64.235  0.00  0.00    +0.000 C 
ATOM     42  C   UNL     1      -9.775   3.670  64.946  0.00  0.00    +0.001 C 
ENDBRANCH   1  42
BRANCH  23  43
ATOM     43  C   UNL     1      -9.431  11.026  63.338  0.00  0.00    +0.039 C 
BRANCH  43  44
ATOM     44  C   UNL     1     -10.886  11.300  62.997  0.00  0.00    +0.119 C 
BRANCH  44  45
ATOM     45  C   UNL     1     -11.235  12.582  63.679  0.00  0.00    +0.365 C 
ATOM     46  O   UNL     1     -12.476  13.173  63.430  0.00  0.00    -0.246 OA
ATOM     47  O   UNL     1     -10.315  13.203  64.252  0.00  0.00    -0.246 OA
ENDBRANCH  44  45
ENDBRANCH  43  44
ENDBRANCH  23  43
BRANCH  19  48
ATOM     48  C   UNL     1      -9.103  13.268  68.379  0.00  0.00    +0.039 C 
BRANCH  48  49
ATOM     49  C   UNL     1     -10.581  13.043  68.685  0.00  0.00    +0.114 C 
BRANCH  49  50
ATOM     50  C   UNL     1     -11.458  13.959  67.936  0.00  0.00    +0.317 C 
ATOM     51  O   UNL     1     -12.150  13.424  67.018  0.00  0.00    -0.250 OA
BRANCH  50  52
ATOM     52  O   UNL     1     -12.001  15.130  68.473  0.00  0.00    -0.444 OA
ATOM     53  C   UNL     1     -11.835  15.276  69.881  0.00  0.00    +0.256 C 
ENDBRANCH  50  52
ENDBRANCH  49  50
ENDBRANCH  48  49
ENDBRANCH  19  48
TORSDOF 12
ENDMDL
MODEL 9
REMARK VINA RESULT:      -6.0      3.671      7.736
REMARK  Name = 
REMARK  12 active torsions:
REMARK  status: ('A' for Active; 'I' for Inactive)
REMARK    1  A    between atoms: C_2  and  C_3
REMARK    2  A    between atoms: C_24  and  C_25
REMARK    3  A    between atoms: C_25  and  C_26
REMARK    4  A    between atoms: C_26  and  C_27
REMARK    5  A    between atoms: C_30  and  C_31
REMARK    6  A    between atoms: C_31  and  C_32
REMARK    7  A    between atoms: C_32  and  C_33
REMARK    8  A    between atoms: C_33  and  O_35
REMARK    9  A    between atoms: C_44  and  C_45
REMARK   10  A    between atoms: C_45  and  O_47
REMARK   11  A    between atoms: C_49  and  C_50
REMARK   12  A    between atoms: C_50  and  O_52
REMARK                            x       y       z     vdW  Elec       q    Type
REMARK                         _______ _______ _______ _____ _____    ______ ____
ROOT
ATOM      1  C   UNL     1      -6.168  17.185  69.579  0.00  0.00    +0.015 A 
ATOM      2  C   UNL     1      -5.857  15.835  69.660  0.00  0.00    +0.082 A 
ATOM      3  N   UNL     1      -6.788  15.063  69.069  0.00  0.00    -0.246 NA
ATOM      4  C   UNL     1      -7.633  15.968  68.529  0.00  0.00    +0.079 A 
ATOM      5  C   UNL     1      -8.980  15.620  68.531  0.00  0.00    +0.038 C 
ATOM      6  C   UNL     1      -9.252  14.344  68.120  0.00  0.00    +0.079 C 
ATOM      7  C   UNL     1     -10.527  13.903  67.530  0.00  0.00    +0.001 C 
ATOM      8  C   UNL     1     -11.787  14.295  67.771  0.00  0.00    -0.003 C 
ATOM      9  C   UNL     1     -12.683  13.634  66.797  0.00  0.00    +0.002 C 
ATOM     10  C   UNL     1     -11.974  13.109  65.792  0.00  0.00    +0.064 C 
ATOM     11  C   UNL     1     -11.135  11.795  66.221  0.00  0.00    +0.136 C 
ATOM     12  C   UNL     1     -10.328  12.497  67.437  0.00  0.00    +0.070 C 
ATOM     13  C   UNL     1     -10.852  11.858  68.716  0.00  0.00    +0.011 C 
ATOM     14  C   UNL     1      -8.887  12.379  67.265  0.00  0.00    +0.064 C 
ATOM     15  C   UNL     1      -7.961  11.421  66.860  0.00  0.00    +0.034 C 
ATOM     16  C   UNL     1      -6.996  10.901  67.720  0.00  0.00    +0.078 A 
ATOM     17  C   UNL     1      -6.566   9.599  67.985  0.00  0.00    -0.007 A 
ATOM     18  C   UNL     1      -6.489   8.520  67.000  0.00  0.00    +0.032 C 
ATOM     19  C   UNL     1      -6.590   9.405  69.362  0.00  0.00    -0.006 A 
ATOM     20  C   UNL     1      -6.554  10.708  69.854  0.00  0.00    +0.079 A 
ATOM     21  C   UNL     1      -6.026  11.185  71.050  0.00  0.00    +0.038 C 
ATOM     22  C   UNL     1      -5.184  12.290  71.097  0.00  0.00    +0.079 C 
ATOM     23  C   UNL     1      -3.947  12.500  71.696  0.00  0.00    -0.006 C 
ATOM     24  C   UNL     1      -3.362  13.498  70.930  0.00  0.00    -0.007 C 
ATOM     25  C   UNL     1      -1.938  13.939  70.974  0.00  0.00    +0.032 C 
ATOM     26  C   UNL     1      -4.396  14.044  70.171  0.00  0.00    +0.079 C 
ATOM     27  N   UNL     1      -5.473  13.262  70.200  0.00  0.00    -0.246 NA
ATOM     28  N   UNL     1      -6.742  11.593  68.860  0.00  0.00    -0.246 NA
ATOM     29  N   UNL     1      -8.324  13.357  68.030  0.00  0.00    -0.250 NA
ATOM     30  C   UNL     1      -4.565  15.378  69.909  0.00  0.00    +0.038 C 
ATOM     31  C   UNL     1      -7.107  17.241  68.556  0.00  0.00    -0.003 A 
ATOM     32  C   UNL     1      -7.687  18.481  67.945  0.00  0.00    +0.033 C 
ENDROOT
BRANCH  11  33
ATOM     33  C   UNL     1      -9.990  12.006  65.114  0.00  0.00    +0.322 C 
ATOM     34  O   UNL     1      -9.866  13.054  64.523  0.00  0.00    -0.250 OA
BRANCH  33  35
ATOM     35  O   UNL     1      -9.940  10.827  64.358  0.00  0.00    -0.444 OA
ATOM     36  C   UNL     1      -9.724  10.943  62.977  0.00  0.00    +0.256 C 
ENDBRANCH  33  35
ENDBRANCH  11  33
BRANCH  10  37
ATOM     37  C   UNL     1     -12.428  13.154  64.404  0.00  0.00    +0.338 C 
ATOM     38  O   UNL     1     -13.112  12.199  63.925  0.00  0.00    -0.245 OA
BRANCH  37  39
ATOM     39  O   UNL     1     -12.575  14.352  63.698  0.00  0.00    -0.442 OA
ATOM     40  C   UNL     1     -12.061  15.595  64.167  0.00  0.00    +0.256 C 
ENDBRANCH  37  39
ENDBRANCH  10  37
BRANCH   1  42
ATOM     41  C   UNL     1      -4.498  18.956  69.552  0.00  0.00    +0.000 C 
ATOM     42  C   UNL     1      -5.468  18.321  70.193  0.00  0.00    +0.001 C 
ENDBRANCH   1  42
BRANCH  23  43
ATOM     43  C   UNL     1      -3.190  11.535  72.556  0.00  0.00    +0.039 C 
BRANCH  43  44
ATOM     44  C   UNL     1      -3.224  11.959  74.014  0.00  0.00    +0.119 C 
BRANCH  44  45
ATOM     45  C   UNL     1      -4.565  11.550  74.531  0.00  0.00    +0.365 C 
ATOM     46  O   UNL     1      -5.469  12.534  74.938  0.00  0.00    -0.246 OA
ATOM     47  O   UNL     1      -4.736  10.345  74.812  0.00  0.00    -0.246 OA
ENDBRANCH  44  45
ENDBRANCH  43  44
ENDBRANCH  23  43
BRANCH  19  48
ATOM     48  C   UNL     1      -6.895   8.205  70.160  0.00  0.00    +0.039 C 
BRANCH  48  49
ATOM     49  C   UNL     1      -8.410   8.124  70.324  0.00  0.00    +0.114 C 
BRANCH  49  50
ATOM     50  C   UNL     1      -8.839   8.333  71.716  0.00  0.00    +0.317 C 
ATOM     51  O   UNL     1      -7.935   8.726  72.514  0.00  0.00    -0.250 OA
BRANCH  50  52
ATOM     52  O   UNL     1     -10.141   8.685  72.086  0.00  0.00    -0.444 OA
ATOM     53  C   UNL     1     -10.850   7.682  72.808  0.00  0.00    +0.256 C 
ENDBRANCH  50  52
ENDBRANCH  49  50
ENDBRANCH  48  49
ENDBRANCH  19  48
TORSDOF 12
ENDMDL
