MODEL 1
REMARK VINA RESULT:      -7.2      0.000      0.000
REMARK  Name = 
REMARK  26 active torsions:
REMARK  status: ('A' for Active; 'I' for Inactive)
REMARK    1  A    between atoms: O_2  and  C_3
REMARK    2  A    between atoms: C_6  and  C_7
REMARK    3  A    between atoms: C_7  and  C_8
REMARK    4  A    between atoms: C_11  and  O_12
REMARK    5  A    between atoms: C_14  and  O_15
REMARK    6  A    between atoms: N_21  and  C_23
REMARK    7  A    between atoms: C_23  and  C_24
REMARK    8  A    between atoms: C_24  and  C_25
REMARK    9  A    between atoms: C_25  and  O_27
REMARK   10  A    between atoms: O_27  and  C_28
REMARK   11  A    between atoms: C_28  and  C_29
REMARK   12  A    between atoms: C_29  and  C_30
REMARK   13  A    between atoms: C_30  and  C_31
REMARK   14  A    between atoms: C_31  and  C_32
REMARK   15  A    between atoms: C_32  and  O_33
REMARK   16  A    between atoms: O_33  and  C_34
REMARK   17  A    between atoms: C_34  and  C_36
REMARK   18  A    between atoms: C_36  and  C_37
REMARK   19  A    between atoms: C_37  and  N_38
REMARK   20  A    between atoms: C_44  and  O_45
REMARK   21  A    between atoms: C_47  and  O_48
REMARK   22  A    between atoms: C_52  and  C_53
REMARK   23  A    between atoms: C_53  and  C_54
REMARK   24  A    between atoms: C_57  and  O_58
REMARK   25  A    between atoms: C_60  and  O_61
REMARK   26  A    between atoms: C_65  and  O_66
REMARK                            x       y       z     vdW  Elec       q    Type
REMARK                         _______ _______ _______ _____ _____    ______ ____
ROOT
ATOM      1  C   UNL     1      -9.616  10.228  65.525  0.00  0.00    +0.008 C 
ENDROOT
BRANCH   1   2
ATOM      2  C   UNL     1     -10.600  10.765  64.494  0.00  0.00    +0.048 C 
BRANCH   2   3
ATOM      3  C   UNL     1     -10.601  12.276  64.645  0.00  0.00    +0.208 C 
BRANCH   3   4
ATOM      4  O   UNL     1     -11.533  12.551  65.690  0.00  0.00    -0.448 OA
BRANCH   4   5
ATOM      5  C   UNL     1     -12.044  13.854  65.688  0.00  0.00    +0.323 C 
ATOM      6  O   UNL     1     -13.133  13.984  65.052  0.00  0.00    -0.250 OA
BRANCH   5   7
ATOM      7  C   UNL     1     -11.052  14.947  65.486  0.00  0.00    +0.170 C 
BRANCH   7   8
ATOM      8  C   UNL     1     -10.430  15.177  66.859  0.00  0.00    +0.121 C 
BRANCH   8   9
ATOM      9  N   UNL     1     -10.233  16.591  66.997  0.00  0.00    +0.301 N 
ATOM     10  C   UNL     1      -8.677  16.611  67.384  0.00  0.00    +0.086 C 
ATOM     11  C   UNL     1      -8.770  18.160  67.928  0.00  0.00    +0.027 A 
ATOM     12  C   UNL     1      -9.098  19.045  66.914  0.00  0.00    -0.012 A 
ATOM     13  C   UNL     1      -8.576  20.327  67.024  0.00  0.00    +0.036 A 
ATOM     14  C   UNL     1      -7.399  20.537  67.736  0.00  0.00    +0.172 A 
ATOM     15  C   UNL     1      -6.959  19.601  68.665  0.00  0.00    +0.172 A 
ATOM     16  C   UNL     1     -10.341  18.801  66.125  0.00  0.00    +0.087 C 
ATOM     17  C   UNL     1      -7.700  18.428  68.750  0.00  0.00    +0.041 A 
ATOM     18  C   UNL     1     -10.312  17.322  65.761  0.00  0.00    +0.114 C 
ATOM     19  C   UNL     1     -10.919  17.174  68.096  0.00  0.00    +0.171 C 
BRANCH  14  20
ATOM     20  O   UNL     1      -6.443  21.446  67.272  0.00  0.00    -0.468 OA
ATOM     21  C   UNL     1      -5.679  21.186  66.105  0.00  0.00    +0.253 C 
ENDBRANCH  14  20
BRANCH  15  22
ATOM     22  O   UNL     1      -5.738  19.754  69.331  0.00  0.00    -0.468 OA
ATOM     23  C   UNL     1      -4.711  18.850  68.933  0.00  0.00    +0.253 C 
ENDBRANCH  15  22
BRANCH  10  24
ATOM     24  C   UNL     1      -8.979  16.003  68.914  0.00  0.00    +0.086 C 
BRANCH  24  25
ATOM     25  C   UNL     1      -7.831  15.063  69.104  0.00  0.00    -0.013 A 
ATOM     26  C   UNL     1      -7.542  14.054  68.201  0.00  0.00    +0.036 A 
ATOM     27  C   UNL     1      -6.233  13.640  68.008  0.00  0.00    +0.172 A 
ATOM     28  C   UNL     1      -5.216  14.106  68.827  0.00  0.00    +0.172 A 
ATOM     29  C   UNL     1      -5.494  15.080  69.778  0.00  0.00    +0.040 A 
ATOM     30  C   UNL     1      -6.768  15.573  69.807  0.00  0.00    -0.001 A 
BRANCH  28  31
ATOM     31  O   UNL     1      -3.898  13.818  68.540  0.00  0.00    -0.468 OA
ATOM     32  C   UNL     1      -2.898  14.813  68.726  0.00  0.00    +0.253 C 
ENDBRANCH  28  31
BRANCH  27  33
ATOM     33  O   UNL     1      -5.900  12.894  66.875  0.00  0.00    -0.468 OA
ATOM     34  C   UNL     1      -6.177  11.513  66.778  0.00  0.00    +0.253 C 
ENDBRANCH  27  33
ENDBRANCH  24  25
ENDBRANCH  10  24
ENDBRANCH   8   9
ENDBRANCH   7   8
ENDBRANCH   5   7
ENDBRANCH   4   5
ENDBRANCH   3   4
ENDBRANCH   2   3
ENDBRANCH   1   2
BRANCH   1  35
ATOM     35  C   UNL     1     -10.360   9.402  66.541  0.00  0.00    +0.048 C 
BRANCH  35  36
ATOM     36  C   UNL     1      -9.811   7.985  66.637  0.00  0.00    +0.208 C 
BRANCH  36  37
ATOM     37  O   UNL     1     -10.886   7.192  67.128  0.00  0.00    -0.448 OA
BRANCH  37  38
ATOM     38  C   UNL     1     -10.605   6.097  67.953  0.00  0.00    +0.323 C 
ATOM     39  O   UNL     1     -10.550   4.962  67.390  0.00  0.00    -0.250 OA
BRANCH  38  40
ATOM     40  C   UNL     1     -11.168   6.066  69.340  0.00  0.00    +0.170 C 
BRANCH  40  41
ATOM     41  C   UNL     1     -11.096   7.492  69.879  0.00  0.00    +0.121 C 
BRANCH  41  43
ATOM     42  C   UNL     1     -11.317   9.130  71.674  0.00  0.00    +0.086 C 
ATOM     43  N   UNL     1     -11.661   7.653  71.150  0.00  0.00    +0.301 N 
ATOM     44  C   UNL     1     -13.122   7.639  71.085  0.00  0.00    +0.171 C 
ATOM     45  C   UNL     1     -11.271   6.758  72.173  0.00  0.00    +0.114 C 
ATOM     46  C   UNL     1     -10.584   7.324  73.365  0.00  0.00    +0.087 C 
ATOM     47  C   UNL     1      -9.400   8.084  72.845  0.00  0.00    -0.012 A 
ATOM     48  C   UNL     1      -8.125   7.530  72.812  0.00  0.00    +0.036 A 
ATOM     49  C   UNL     1      -7.173   7.995  71.910  0.00  0.00    +0.172 A 
ATOM     50  C   UNL     1      -7.585   8.795  70.848  0.00  0.00    +0.172 A 
ATOM     51  C   UNL     1      -8.951   8.942  70.629  0.00  0.00    +0.041 A 
ATOM     52  C   UNL     1      -9.713   8.812  71.700  0.00  0.00    +0.027 A 
BRANCH  50  53
ATOM     53  O   UNL     1      -6.665   9.445  70.018  0.00  0.00    -0.468 OA
ATOM     54  C   UNL     1      -6.436  10.819  70.262  0.00  0.00    +0.253 C 
ENDBRANCH  50  53
BRANCH  49  55
ATOM     55  O   UNL     1      -5.810   7.953  72.224  0.00  0.00    -0.468 OA
ATOM     56  C   UNL     1      -5.308   8.782  73.241  0.00  0.00    +0.253 C 
ENDBRANCH  49  55
BRANCH  42  57
ATOM     57  C   UNL     1     -11.314   9.804  70.134  0.00  0.00    +0.086 C 
BRANCH  57  61
ATOM     58  C   UNL     1     -12.163  13.751  70.966  0.00  0.00    +0.172 A 
ATOM     59  C   UNL     1     -12.972  12.807  71.586  0.00  0.00    +0.172 A 
ATOM     60  C   UNL     1     -12.842  11.456  71.288  0.00  0.00    +0.036 A 
ATOM     61  C   UNL     1     -11.955  11.112  70.302  0.00  0.00    -0.013 A 
ATOM     62  C   UNL     1     -11.664  12.093  69.360  0.00  0.00    -0.001 A 
ATOM     63  C   UNL     1     -11.686  13.444  69.698  0.00  0.00    +0.040 A 
BRANCH  58  65
ATOM     64  C   UNL     1     -11.904  16.124  71.251  0.00  0.00    +0.253 C 
ATOM     65  O   UNL     1     -11.645  14.807  71.723  0.00  0.00    -0.468 OA
ENDBRANCH  58  65
BRANCH  59  66
ATOM     66  O   UNL     1     -13.909  13.292  72.496  0.00  0.00    -0.468 OA
ATOM     67  C   UNL     1     -14.833  14.304  72.125  0.00  0.00    +0.253 C 
ENDBRANCH  59  66
ENDBRANCH  57  61
ENDBRANCH  42  57
ENDBRANCH  41  43
ENDBRANCH  40  41
ENDBRANCH  38  40
ENDBRANCH  37  38
ENDBRANCH  36  37
ENDBRANCH  35  36
ENDBRANCH   1  35
TORSDOF 26
ENDMDL
MODEL 2
REMARK VINA RESULT:      -7.2      2.289      9.610
REMARK  Name = 
REMARK  26 active torsions:
REMARK  status: ('A' for Active; 'I' for Inactive)
REMARK    1  A    between atoms: O_2  and  C_3
REMARK    2  A    between atoms: C_6  and  C_7
REMARK    3  A    between atoms: C_7  and  C_8
REMARK    4  A    between atoms: C_11  and  O_12
REMARK    5  A    between atoms: C_14  and  O_15
REMARK    6  A    between atoms: N_21  and  C_23
REMARK    7  A    between atoms: C_23  and  C_24
REMARK    8  A    between atoms: C_24  and  C_25
REMARK    9  A    between atoms: C_25  and  O_27
REMARK   10  A    between atoms: O_27  and  C_28
REMARK   11  A    between atoms: C_28  and  C_29
REMARK   12  A    between atoms: C_29  and  C_30
REMARK   13  A    between atoms: C_30  and  C_31
REMARK   14  A    between atoms: C_31  and  C_32
REMARK   15  A    between atoms: C_32  and  O_33
REMARK   16  A    between atoms: O_33  and  C_34
REMARK   17  A    between atoms: C_34  and  C_36
REMARK   18  A    between atoms: C_36  and  C_37
REMARK   19  A    between atoms: C_37  and  N_38
REMARK   20  A    between atoms: C_44  and  O_45
REMARK   21  A    between atoms: C_47  and  O_48
REMARK   22  A    between atoms: C_52  and  C_53
REMARK   23  A    between atoms: C_53  and  C_54
REMARK   24  A    between atoms: C_57  and  O_58
REMARK   25  A    between atoms: C_60  and  O_61
REMARK   26  A    between atoms: C_65  and  O_66
REMARK                            x       y       z     vdW  Elec       q    Type
REMARK                         _______ _______ _______ _____ _____    ______ ____
ROOT
ATOM      1  C   UNL     1     -12.231  12.212  63.490  0.00  0.00    +0.008 C 
ENDROOT
BRANCH   1   2
ATOM      2  C   UNL     1     -10.808  11.725  63.253  0.00  0.00    +0.048 C 
BRANCH   2   3
ATOM      3  C   UNL     1     -10.473  10.796  64.407  0.00  0.00    +0.208 C 
BRANCH   3   4
ATOM      4  O   UNL     1      -9.116  10.406  64.198  0.00  0.00    -0.448 OA
BRANCH   4   5
ATOM      5  C   UNL     1      -8.628   9.473  65.118  0.00  0.00    +0.323 C 
ATOM      6  O   UNL     1      -7.677   8.758  64.679  0.00  0.00    -0.250 OA
BRANCH   5   7
ATOM      7  C   UNL     1      -9.651   8.749  65.923  0.00  0.00    +0.170 C 
BRANCH   7   8
ATOM      8  C   UNL     1      -8.854   7.922  66.927  0.00  0.00    +0.121 C 
BRANCH   8   9
ATOM      9  N   UNL     1      -9.291   8.318  68.235  0.00  0.00    +0.301 N 
ATOM     10  C   UNL     1      -9.463   6.875  68.910  0.00  0.00    +0.086 C 
ATOM     11  C   UNL     1     -10.362   7.491  70.142  0.00  0.00    +0.027 A 
ATOM     12  C   UNL     1      -9.635   8.380  70.916  0.00  0.00    -0.012 A 
ATOM     13  C   UNL     1      -9.971   8.440  72.263  0.00  0.00    +0.036 A 
ATOM     14  C   UNL     1     -10.551   7.337  72.882  0.00  0.00    +0.172 A 
ATOM     15  C   UNL     1     -11.169   6.346  72.126  0.00  0.00    +0.172 A 
ATOM     16  C   UNL     1      -8.982   9.544  70.249  0.00  0.00    +0.087 C 
ATOM     17  C   UNL     1     -11.075   6.481  70.747  0.00  0.00    +0.041 A 
ATOM     18  C   UNL     1      -8.282   8.973  69.022  0.00  0.00    +0.114 C 
ATOM     19  C   UNL     1     -10.578   8.922  68.265  0.00  0.00    +0.171 C 
BRANCH  14  20
ATOM     20  O   UNL     1     -10.190   6.987  74.186  0.00  0.00    -0.468 OA
ATOM     21  C   UNL     1      -8.829   6.887  74.577  0.00  0.00    +0.253 C 
ENDBRANCH  14  20
BRANCH  15  22
ATOM     22  O   UNL     1     -11.685   5.191  72.723  0.00  0.00    -0.468 OA
ATOM     23  C   UNL     1     -10.776   4.097  72.816  0.00  0.00    +0.253 C 
ENDBRANCH  15  22
BRANCH  10  24
ATOM     24  C   UNL     1     -10.835   6.540  68.011  0.00  0.00    +0.086 C 
BRANCH  24  25
ATOM     25  C   UNL     1     -10.542   5.164  67.503  0.00  0.00    -0.013 A 
ATOM     26  C   UNL     1     -10.562   4.853  66.154  0.00  0.00    +0.036 A 
ATOM     27  C   UNL     1      -9.725   3.869  65.649  0.00  0.00    +0.172 A 
ATOM     28  C   UNL     1      -8.979   3.069  66.502  0.00  0.00    +0.172 A 
ATOM     29  C   UNL     1      -8.987   3.330  67.867  0.00  0.00    +0.040 A 
ATOM     30  C   UNL     1      -9.696   4.419  68.287  0.00  0.00    -0.001 A 
BRANCH  28  31
ATOM     31  O   UNL     1      -8.034   2.199  65.999  0.00  0.00    -0.468 OA
ATOM     32  C   UNL     1      -6.697   2.642  65.800  0.00  0.00    +0.253 C 
ENDBRANCH  28  31
BRANCH  27  33
ATOM     33  O   UNL     1      -9.487   3.795  64.275  0.00  0.00    -0.468 OA
ATOM     34  C   UNL     1      -8.776   4.799  63.583  0.00  0.00    +0.253 C 
ENDBRANCH  27  33
ENDBRANCH  24  25
ENDBRANCH  10  24
ENDBRANCH   8   9
ENDBRANCH   7   8
ENDBRANCH   5   7
ENDBRANCH   4   5
ENDBRANCH   3   4
ENDBRANCH   2   3
ENDBRANCH   1   2
BRANCH   1  35
ATOM     35  C   UNL     1     -12.442  12.439  64.964  0.00  0.00    +0.048 C 
BRANCH  35  36
ATOM     36  C   UNL     1     -12.993  13.828  65.253  0.00  0.00    +0.208 C 
BRANCH  36  37
ATOM     37  O   UNL     1     -12.405  14.682  64.278  0.00  0.00    -0.448 OA
BRANCH  37  38
ATOM     38  C   UNL     1     -11.398  15.572  64.669  0.00  0.00    +0.323 C 
ATOM     39  O   UNL     1     -11.313  16.655  64.013  0.00  0.00    -0.250 OA
BRANCH  38  40
ATOM     40  C   UNL     1     -10.081  15.028  65.126  0.00  0.00    +0.170 C 
BRANCH  40  41
ATOM     41  C   UNL     1      -9.896  15.473  66.574  0.00  0.00    +0.121 C 
BRANCH  41  43
ATOM     42  C   UNL     1      -9.659  14.805  68.910  0.00  0.00    +0.086 C 
ATOM     43  N   UNL     1      -9.243  14.534  67.383  0.00  0.00    +0.301 N 
ATOM     44  C   UNL     1      -9.733  13.181  67.125  0.00  0.00    +0.171 C 
ATOM     45  C   UNL     1      -7.830  14.490  67.349  0.00  0.00    +0.114 C 
ATOM     46  C   UNL     1      -7.096  14.789  68.609  0.00  0.00    +0.087 C 
ATOM     47  C   UNL     1      -7.574  16.135  69.064  0.00  0.00    -0.012 A 
ATOM     48  C   UNL     1      -6.866  17.300  68.791  0.00  0.00    +0.036 A 
ATOM     49  C   UNL     1      -7.513  18.532  68.751  0.00  0.00    +0.172 A 
ATOM     50  C   UNL     1      -8.903  18.560  68.684  0.00  0.00    +0.172 A 
ATOM     51  C   UNL     1      -9.574  17.360  68.473  0.00  0.00    +0.041 A 
ATOM     52  C   UNL     1      -8.950  16.278  68.905  0.00  0.00    +0.027 A 
BRANCH  50  53
ATOM     53  O   UNL     1      -9.621  19.752  68.829  0.00  0.00    -0.468 OA
ATOM     54  C   UNL     1     -10.187  20.310  67.660  0.00  0.00    +0.253 C 
ENDBRANCH  50  53
BRANCH  49  55
ATOM     55  O   UNL     1      -6.838  19.705  69.102  0.00  0.00    -0.468 OA
ATOM     56  C   UNL     1      -6.293  20.519  68.096  0.00  0.00    +0.253 C 
ENDBRANCH  49  55
BRANCH  42  57
ATOM     57  C   UNL     1     -11.192  15.372  68.516  0.00  0.00    +0.086 C 
BRANCH  57  61
ATOM     58  C   UNL     1     -13.065  14.149  71.978  0.00  0.00    +0.172 A 
ATOM     59  C   UNL     1     -12.610  13.139  71.138  0.00  0.00    +0.172 A 
ATOM     60  C   UNL     1     -12.065  13.441  69.897  0.00  0.00    +0.036 A 
ATOM     61  C   UNL     1     -12.080  14.754  69.506  0.00  0.00    -0.013 A 
ATOM     62  C   UNL     1     -13.051  15.563  70.087  0.00  0.00    -0.001 A 
ATOM     63  C   UNL     1     -13.511  15.320  71.379  0.00  0.00    +0.040 A 
BRANCH  58  65
ATOM     64  C   UNL     1     -12.435  15.272  74.008  0.00  0.00    +0.253 C 
ATOM     65  O   UNL     1     -12.801  14.065  73.349  0.00  0.00    -0.468 OA
ENDBRANCH  58  65
BRANCH  59  66
ATOM     66  O   UNL     1     -12.744  11.834  71.606  0.00  0.00    -0.468 OA
ATOM     67  C   UNL     1     -12.553  10.723  70.742  0.00  0.00    +0.253 C 
ENDBRANCH  59  66
ENDBRANCH  57  61
ENDBRANCH  42  57
ENDBRANCH  41  43
ENDBRANCH  40  41
ENDBRANCH  38  40
ENDBRANCH  37  38
ENDBRANCH  36  37
ENDBRANCH  35  36
ENDBRANCH   1  35
TORSDOF 26
ENDMDL
MODEL 3
REMARK VINA RESULT:      -7.0      2.620     10.687
REMARK  Name = 
REMARK  26 active torsions:
REMARK  status: ('A' for Active; 'I' for Inactive)
REMARK    1  A    between atoms: O_2  and  C_3
REMARK    2  A    between atoms: C_6  and  C_7
REMARK    3  A    between atoms: C_7  and  C_8
REMARK    4  A    between atoms: C_11  and  O_12
REMARK    5  A    between atoms: C_14  and  O_15
REMARK    6  A    between atoms: N_21  and  C_23
REMARK    7  A    between atoms: C_23  and  C_24
REMARK    8  A    between atoms: C_24  and  C_25
REMARK    9  A    between atoms: C_25  and  O_27
REMARK   10  A    between atoms: O_27  and  C_28
REMARK   11  A    between atoms: C_28  and  C_29
REMARK   12  A    between atoms: C_29  and  C_30
REMARK   13  A    between atoms: C_30  and  C_31
REMARK   14  A    between atoms: C_31  and  C_32
REMARK   15  A    between atoms: C_32  and  O_33
REMARK   16  A    between atoms: O_33  and  C_34
REMARK   17  A    between atoms: C_34  and  C_36
REMARK   18  A    between atoms: C_36  and  C_37
REMARK   19  A    between atoms: C_37  and  N_38
REMARK   20  A    between atoms: C_44  and  O_45
REMARK   21  A    between atoms: C_47  and  O_48
REMARK   22  A    between atoms: C_52  and  C_53
REMARK   23  A    between atoms: C_53  and  C_54
REMARK   24  A    between atoms: C_57  and  O_58
REMARK   25  A    between atoms: C_60  and  O_61
REMARK   26  A    between atoms: C_65  and  O_66
REMARK                            x       y       z     vdW  Elec       q    Type
REMARK                         _______ _______ _______ _____ _____    ______ ____
ROOT
ATOM      1  C   UNL     1     -11.210  11.428  63.409  0.00  0.00    +0.008 C 
ENDROOT
BRANCH   1   2
ATOM      2  C   UNL     1      -9.977  11.892  64.173  0.00  0.00    +0.048 C 
BRANCH   2   3
ATOM      3  C   UNL     1      -9.349  10.647  64.775  0.00  0.00    +0.208 C 
BRANCH   3   4
ATOM      4  O   UNL     1     -10.261  10.214  65.785  0.00  0.00    -0.448 OA
BRANCH   4   5
ATOM      5  C   UNL     1      -9.721   9.318  66.713  0.00  0.00    +0.323 C 
ATOM      6  O   UNL     1      -8.699   9.754  67.324  0.00  0.00    -0.250 OA
BRANCH   5   7
ATOM      7  C   UNL     1      -9.648   7.893  66.282  0.00  0.00    +0.170 C 
BRANCH   7   8
ATOM      8  C   UNL     1     -10.319   7.105  67.402  0.00  0.00    +0.121 C 
BRANCH   8   9
ATOM      9  N   UNL     1      -9.780   5.776  67.359  0.00  0.00    +0.301 N 
ATOM     10  C   UNL     1     -10.287   5.233  68.779  0.00  0.00    +0.086 C 
ATOM     11  C   UNL     1      -9.235   3.969  68.739  0.00  0.00    +0.027 A 
ATOM     12  C   UNL     1      -9.505   3.106  67.689  0.00  0.00    -0.012 A 
ATOM     13  C   UNL     1      -9.207   1.767  67.903  0.00  0.00    +0.036 A 
ATOM     14  C   UNL     1      -9.196   1.257  69.198  0.00  0.00    +0.172 A 
ATOM     15  C   UNL     1      -9.070   2.108  70.291  0.00  0.00    +0.172 A 
ATOM     16  C   UNL     1      -9.553   3.657  66.303  0.00  0.00    +0.087 C 
ATOM     17  C   UNL     1      -9.063   3.469  70.009  0.00  0.00    +0.041 A 
ATOM     18  C   UNL     1     -10.407   4.916  66.393  0.00  0.00    +0.114 C 
ATOM     19  C   UNL     1      -8.360   5.718  67.399  0.00  0.00    +0.171 C 
BRANCH  14  20
ATOM     20  O   UNL     1      -9.705  -0.018  69.461  0.00  0.00    -0.468 OA
ATOM     21  C   UNL     1      -8.914  -1.182  69.281  0.00  0.00    +0.253 C 
ENDBRANCH  14  20
BRANCH  15  22
ATOM     22  O   UNL     1      -9.138   1.624  71.602  0.00  0.00    -0.468 OA
ATOM     23  C   UNL     1     -10.454   1.492  72.133  0.00  0.00    +0.253 C 
ENDBRANCH  15  22
BRANCH  10  24
ATOM     24  C   UNL     1      -9.190   6.184  69.613  0.00  0.00    +0.086 C 
BRANCH  24  25
ATOM     25  C   UNL     1     -10.081   6.927  70.556  0.00  0.00    -0.013 A 
ATOM     26  C   UNL     1     -10.190   8.307  70.540  0.00  0.00    +0.036 A 
ATOM     27  C   UNL     1     -11.380   8.921  70.898  0.00  0.00    +0.172 A 
ATOM     28  C   UNL     1     -12.424   8.181  71.433  0.00  0.00    +0.172 A 
ATOM     29  C   UNL     1     -12.315   6.798  71.509  0.00  0.00    +0.040 A 
ATOM     30  C   UNL     1     -11.187   6.235  70.984  0.00  0.00    -0.001 A 
BRANCH  28  31
ATOM     31  O   UNL     1     -13.658   8.761  71.644  0.00  0.00    -0.468 OA
ATOM     32  C   UNL     1     -14.810   7.941  71.796  0.00  0.00    +0.253 C 
ENDBRANCH  28  31
BRANCH  27  33
ATOM     33  O   UNL     1     -11.606  10.256  70.554  0.00  0.00    -0.468 OA
ATOM     34  C   UNL     1     -11.862  10.654  69.224  0.00  0.00    +0.253 C 
ENDBRANCH  27  33
ENDBRANCH  24  25
ENDBRANCH  10  24
ENDBRANCH   8   9
ENDBRANCH   7   8
ENDBRANCH   5   7
ENDBRANCH   4   5
ENDBRANCH   3   4
ENDBRANCH   2   3
ENDBRANCH   1   2
BRANCH   1  35
ATOM     35  C   UNL     1     -12.328  12.416  63.620  0.00  0.00    +0.048 C 
BRANCH  35  36
ATOM     36  C   UNL     1     -12.092  13.291  64.844  0.00  0.00    +0.208 C 
BRANCH  36  37
ATOM     37  O   UNL     1     -12.235  14.631  64.387  0.00  0.00    -0.448 OA
BRANCH  37  38
ATOM     38  C   UNL     1     -11.343  15.607  64.844  0.00  0.00    +0.323 C 
ATOM     39  O   UNL     1     -11.329  16.706  64.209  0.00  0.00    -0.250 OA
BRANCH  38  40
ATOM     40  C   UNL     1     -10.004  15.185  65.366  0.00  0.00    +0.170 C 
BRANCH  40  41
ATOM     41  C   UNL     1      -9.990  15.503  66.859  0.00  0.00    +0.121 C 
BRANCH  41  43
ATOM     42  C   UNL     1      -9.210  15.152  69.144  0.00  0.00    +0.086 C 
ATOM     43  N   UNL     1      -9.162  14.666  67.616  0.00  0.00    +0.301 N 
ATOM     44  C   UNL     1      -9.692  13.304  67.667  0.00  0.00    +0.171 C 
ATOM     45  C   UNL     1      -7.795  14.578  67.260  0.00  0.00    +0.114 C 
ATOM     46  C   UNL     1      -6.789  15.024  68.261  0.00  0.00    +0.087 C 
ATOM     47  C   UNL     1      -7.153  16.432  68.625  0.00  0.00    -0.012 A 
ATOM     48  C   UNL     1      -6.534  17.530  68.036  0.00  0.00    +0.036 A 
ATOM     49  C   UNL     1      -7.178  18.762  67.977  0.00  0.00    +0.172 A 
ATOM     50  C   UNL     1      -8.546  18.819  68.232  0.00  0.00    +0.172 A 
ATOM     51  C   UNL     1      -9.242  17.621  68.351  0.00  0.00    +0.041 A 
ATOM     52  C   UNL     1      -8.529  16.591  68.771  0.00  0.00    +0.027 A 
BRANCH  50  53
ATOM     53  O   UNL     1      -9.215  20.040  68.373  0.00  0.00    -0.468 OA
ATOM     54  C   UNL     1     -10.342  20.257  67.548  0.00  0.00    +0.253 C 
ENDBRANCH  50  53
BRANCH  49  55
ATOM     55  O   UNL     1      -6.445  19.953  67.996  0.00  0.00    -0.468 OA
ATOM     56  C   UNL     1      -6.276  20.682  66.808  0.00  0.00    +0.253 C 
ENDBRANCH  49  55
BRANCH  42  57
ATOM     57  C   UNL     1     -10.796  15.702  69.043  0.00  0.00    +0.086 C 
BRANCH  57  61
ATOM     58  C   UNL     1     -13.416  14.465  71.974  0.00  0.00    +0.172 A 
ATOM     59  C   UNL     1     -12.698  15.624  72.244  0.00  0.00    +0.172 A 
ATOM     60  C   UNL     1     -11.710  16.066  71.373  0.00  0.00    +0.036 A 
ATOM     61  C   UNL     1     -11.418  15.268  70.297  0.00  0.00    -0.013 A 
ATOM     62  C   UNL     1     -11.717  13.916  70.429  0.00  0.00    -0.001 A 
ATOM     63  C   UNL     1     -12.782  13.488  71.216  0.00  0.00    +0.040 A 
BRANCH  58  65
ATOM     64  C   UNL     1     -15.620  15.149  71.303  0.00  0.00    +0.253 C 
ATOM     65  O   UNL     1     -14.792  14.443  72.221  0.00  0.00    -0.468 OA
ENDBRANCH  58  65
BRANCH  59  66
ATOM     66  O   UNL     1     -13.016  16.293  73.424  0.00  0.00    -0.468 OA
ATOM     67  C   UNL     1     -12.454  15.895  74.665  0.00  0.00    +0.253 C 
ENDBRANCH  59  66
ENDBRANCH  57  61
ENDBRANCH  42  57
ENDBRANCH  41  43
ENDBRANCH  40  41
ENDBRANCH  38  40
ENDBRANCH  37  38
ENDBRANCH  36  37
ENDBRANCH  35  36
ENDBRANCH   1  35
TORSDOF 26
ENDMDL
MODEL 4
REMARK VINA RESULT:      -6.8      2.023      9.001
REMARK  Name = 
REMARK  26 active torsions:
REMARK  status: ('A' for Active; 'I' for Inactive)
REMARK    1  A    between atoms: O_2  and  C_3
REMARK    2  A    between atoms: C_6  and  C_7
REMARK    3  A    between atoms: C_7  and  C_8
REMARK    4  A    between atoms: C_11  and  O_12
REMARK    5  A    between atoms: C_14  and  O_15
REMARK    6  A    between atoms: N_21  and  C_23
REMARK    7  A    between atoms: C_23  and  C_24
REMARK    8  A    between atoms: C_24  and  C_25
REMARK    9  A    between atoms: C_25  and  O_27
REMARK   10  A    between atoms: O_27  and  C_28
REMARK   11  A    between atoms: C_28  and  C_29
REMARK   12  A    between atoms: C_29  and  C_30
REMARK   13  A    between atoms: C_30  and  C_31
REMARK   14  A    between atoms: C_31  and  C_32
REMARK   15  A    between atoms: C_32  and  O_33
REMARK   16  A    between atoms: O_33  and  C_34
REMARK   17  A    between atoms: C_34  and  C_36
REMARK   18  A    between atoms: C_36  and  C_37
REMARK   19  A    between atoms: C_37  and  N_38
REMARK   20  A    between atoms: C_44  and  O_45
REMARK   21  A    between atoms: C_47  and  O_48
REMARK   22  A    between atoms: C_52  and  C_53
REMARK   23  A    between atoms: C_53  and  C_54
REMARK   24  A    between atoms: C_57  and  O_58
REMARK   25  A    between atoms: C_60  and  O_61
REMARK   26  A    between atoms: C_65  and  O_66
REMARK                            x       y       z     vdW  Elec       q    Type
REMARK                         _______ _______ _______ _____ _____    ______ ____
ROOT
ATOM      1  C   UNL     1     -11.646  12.537  63.503  0.00  0.00    +0.008 C 
ENDROOT
BRANCH   1   2
ATOM      2  C   UNL     1     -10.210  12.124  63.799  0.00  0.00    +0.048 C 
BRANCH   2   3
ATOM      3  C   UNL     1     -10.092  10.663  63.402  0.00  0.00    +0.208 C 
BRANCH   3   4
ATOM      4  O   UNL     1      -8.693  10.380  63.413  0.00  0.00    -0.448 OA
BRANCH   4   5
ATOM      5  C   UNL     1      -8.186   9.991  64.657  0.00  0.00    +0.323 C 
ATOM      6  O   UNL     1      -6.927   9.835  64.680  0.00  0.00    -0.250 OA
BRANCH   5   7
ATOM      7  C   UNL     1      -8.970   8.959  65.391  0.00  0.00    +0.170 C 
BRANCH   7   8
ATOM      8  C   UNL     1      -8.710   9.239  66.868  0.00  0.00    +0.121 C 
BRANCH   8   9
ATOM      9  N   UNL     1      -9.686  10.203  67.289  0.00  0.00    +0.301 N 
ATOM     10  C   UNL     1      -9.864   9.757  68.818  0.00  0.00    +0.086 C 
ATOM     11  C   UNL     1     -11.264  10.607  68.967  0.00  0.00    +0.027 A 
ATOM     12  C   UNL     1     -11.061  11.968  68.808  0.00  0.00    -0.012 A 
ATOM     13  C   UNL     1     -11.904  12.803  69.529  0.00  0.00    +0.036 A 
ATOM     14  C   UNL     1     -12.485  12.349  70.709  0.00  0.00    +0.172 A 
ATOM     15  C   UNL     1     -12.581  10.987  70.972  0.00  0.00    +0.172 A 
ATOM     16  C   UNL     1     -10.404  12.454  67.559  0.00  0.00    +0.087 C 
ATOM     17  C   UNL     1     -11.976  10.143  70.048  0.00  0.00    +0.041 A 
ATOM     18  C   UNL     1      -9.193  11.552  67.355  0.00  0.00    +0.114 C 
ATOM     19  C   UNL     1     -10.962  10.048  66.682  0.00  0.00    +0.171 C 
BRANCH  14  20
ATOM     20  O   UNL     1     -12.613  13.203  71.809  0.00  0.00    -0.468 OA
ATOM     21  C   UNL     1     -12.962  14.569  71.650  0.00  0.00    +0.253 C 
ENDBRANCH  14  20
BRANCH  15  22
ATOM     22  O   UNL     1     -13.087  10.513  72.187  0.00  0.00    -0.468 OA
ATOM     23  C   UNL     1     -13.283   9.104  72.254  0.00  0.00    +0.253 C 
ENDBRANCH  15  22
BRANCH  10  24
ATOM     24  C   UNL     1     -10.694   8.368  68.390  0.00  0.00    +0.086 C 
BRANCH  24  25
ATOM     25  C   UNL     1     -10.042   7.340  69.258  0.00  0.00    -0.013 A 
ATOM     26  C   UNL     1      -9.642   7.610  70.555  0.00  0.00    +0.036 A 
ATOM     27  C   UNL     1      -9.653   6.610  71.515  0.00  0.00    +0.172 A 
ATOM     28  C   UNL     1      -9.904   5.293  71.162  0.00  0.00    +0.172 A 
ATOM     29  C   UNL     1     -10.254   4.990  69.851  0.00  0.00    +0.040 A 
ATOM     30  C   UNL     1     -10.394   6.040  68.988  0.00  0.00    -0.001 A 
BRANCH  28  31
ATOM     31  O   UNL     1     -10.069   4.326  72.131  0.00  0.00    -0.468 OA
ATOM     32  C   UNL     1      -9.055   3.350  72.339  0.00  0.00    +0.253 C 
ENDBRANCH  28  31
BRANCH  27  33
ATOM     33  O   UNL     1      -9.594   6.946  72.870  0.00  0.00    -0.468 OA
ATOM     34  C   UNL     1      -8.789   8.004  73.346  0.00  0.00    +0.253 C 
ENDBRANCH  27  33
ENDBRANCH  24  25
ENDBRANCH  10  24
ENDBRANCH   8   9
ENDBRANCH   7   8
ENDBRANCH   5   7
ENDBRANCH   4   5
ENDBRANCH   3   4
ENDBRANCH   2   3
ENDBRANCH   1   2
BRANCH   1  35
ATOM     35  C   UNL     1     -12.424  12.595  64.792  0.00  0.00    +0.048 C 
BRANCH  35  36
ATOM     36  C   UNL     1     -12.707  14.027  65.224  0.00  0.00    +0.208 C 
BRANCH  36  37
ATOM     37  O   UNL     1     -11.890  14.844  64.392  0.00  0.00    -0.448 OA
BRANCH  37  38
ATOM     38  C   UNL     1     -11.150  15.881  64.968  0.00  0.00    +0.323 C 
ATOM     39  O   UNL     1     -11.123  16.980  64.334  0.00  0.00    -0.250 OA
BRANCH  38  40
ATOM     40  C   UNL     1      -9.877  15.557  65.687  0.00  0.00    +0.170 C 
BRANCH  40  41
ATOM     41  C   UNL     1      -9.343  16.869  66.255  0.00  0.00    +0.121 C 
BRANCH  41  43
ATOM     42  C   UNL     1      -8.760  17.888  68.395  0.00  0.00    +0.086 C 
ATOM     43  N   UNL     1      -9.908  17.232  67.484  0.00  0.00    +0.301 N 
ATOM     44  C   UNL     1     -10.880  18.312  67.321  0.00  0.00    +0.171 C 
ATOM     45  C   UNL     1     -10.518  16.223  68.265  0.00  0.00    +0.114 C 
ATOM     46  C   UNL     1      -9.939  15.938  69.606  0.00  0.00    +0.087 C 
ATOM     47  C   UNL     1      -8.489  15.631  69.381  0.00  0.00    -0.012 A 
ATOM     48  C   UNL     1      -8.017  14.326  69.290  0.00  0.00    +0.036 A 
ATOM     49  C   UNL     1      -6.839  14.043  68.605  0.00  0.00    +0.172 A 
ATOM     50  C   UNL     1      -6.302  15.011  67.761  0.00  0.00    +0.172 A 
ATOM     51  C   UNL     1      -7.062  16.146  67.497  0.00  0.00    +0.041 A 
ATOM     52  C   UNL     1      -7.916  16.489  68.445  0.00  0.00    +0.027 A 
BRANCH  50  53
ATOM     53  O   UNL     1      -5.032  14.865  67.191  0.00  0.00    -0.468 OA
ATOM     54  C   UNL     1      -3.959  15.526  67.832  0.00  0.00    +0.253 C 
ENDBRANCH  50  53
BRANCH  49  55
ATOM     55  O   UNL     1      -6.030  12.968  68.988  0.00  0.00    -0.468 OA
ATOM     56  C   UNL     1      -5.558  12.892  70.309  0.00  0.00    +0.253 C 
ENDBRANCH  49  55
BRANCH  42  57
ATOM     57  C   UNL     1      -7.921  18.526  67.085  0.00  0.00    +0.086 C 
BRANCH  57  61
ATOM     58  C   UNL     1      -4.917  21.122  68.194  0.00  0.00    +0.172 A 
ATOM     59  C   UNL     1      -5.655  20.560  69.230  0.00  0.00    +0.172 A 
ATOM     60  C   UNL     1      -6.758  19.760  68.962  0.00  0.00    +0.036 A 
ATOM     61  C   UNL     1      -7.135  19.627  67.651  0.00  0.00    -0.013 A 
ATOM     62  C   UNL     1      -6.757  20.652  66.790  0.00  0.00    -0.001 A 
ATOM     63  C   UNL     1      -5.587  21.376  67.004  0.00  0.00    +0.040 A 
BRANCH  58  65
ATOM     64  C   UNL     1      -2.820  20.057  67.699  0.00  0.00    +0.253 C 
ATOM     65  O   UNL     1      -3.522  21.147  68.287  0.00  0.00    -0.468 OA
ENDBRANCH  58  65
BRANCH  59  66
ATOM     66  O   UNL     1      -5.233  20.854  70.525  0.00  0.00    -0.468 OA
ATOM     67  C   UNL     1      -5.823  20.219  71.649  0.00  0.00    +0.253 C 
ENDBRANCH  59  66
ENDBRANCH  57  61
ENDBRANCH  42  57
ENDBRANCH  41  43
ENDBRANCH  40  41
ENDBRANCH  38  40
ENDBRANCH  37  38
ENDBRANCH  36  37
ENDBRANCH  35  36
ENDBRANCH   1  35
TORSDOF 26
ENDMDL
MODEL 5
REMARK VINA RESULT:      -6.7      2.768     10.756
REMARK  Name = 
REMARK  26 active torsions:
REMARK  status: ('A' for Active; 'I' for Inactive)
REMARK    1  A    between atoms: O_2  and  C_3
REMARK    2  A    between atoms: C_6  and  C_7
REMARK    3  A    between atoms: C_7  and  C_8
REMARK    4  A    between atoms: C_11  and  O_12
REMARK    5  A    between atoms: C_14  and  O_15
REMARK    6  A    between atoms: N_21  and  C_23
REMARK    7  A    between atoms: C_23  and  C_24
REMARK    8  A    between atoms: C_24  and  C_25
REMARK    9  A    between atoms: C_25  and  O_27
REMARK   10  A    between atoms: O_27  and  C_28
REMARK   11  A    between atoms: C_28  and  C_29
REMARK   12  A    between atoms: C_29  and  C_30
REMARK   13  A    between atoms: C_30  and  C_31
REMARK   14  A    between atoms: C_31  and  C_32
REMARK   15  A    between atoms: C_32  and  O_33
REMARK   16  A    between atoms: O_33  and  C_34
REMARK   17  A    between atoms: C_34  and  C_36
REMARK   18  A    between atoms: C_36  and  C_37
REMARK   19  A    between atoms: C_37  and  N_38
REMARK   20  A    between atoms: C_44  and  O_45
REMARK   21  A    between atoms: C_47  and  O_48
REMARK   22  A    between atoms: C_52  and  C_53
REMARK   23  A    between atoms: C_53  and  C_54
REMARK   24  A    between atoms: C_57  and  O_58
REMARK   25  A    between atoms: C_60  and  O_61
REMARK   26  A    between atoms: C_65  and  O_66
REMARK                            x       y       z     vdW  Elec       q    Type
REMARK                         _______ _______ _______ _____ _____    ______ ____
ROOT
ATOM      1  C   UNL     1      -6.579  12.792  69.154  0.00  0.00    +0.008 C 
ENDROOT
BRANCH   1   2
ATOM      2  C   UNL     1      -7.094  11.378  68.922  0.00  0.00    +0.048 C 
BRANCH   2   3
ATOM      3  C   UNL     1      -6.255  10.464  69.798  0.00  0.00    +0.208 C 
BRANCH   3   4
ATOM      4  O   UNL     1      -7.179   9.835  70.684  0.00  0.00    -0.448 OA
BRANCH   4   5
ATOM      5  C   UNL     1      -7.275   8.447  70.538  0.00  0.00    +0.323 C 
ATOM      6  O   UNL     1      -7.932   8.075  69.519  0.00  0.00    -0.250 OA
BRANCH   5   7
ATOM      7  C   UNL     1      -7.538   7.673  71.784  0.00  0.00    +0.170 C 
BRANCH   7   8
ATOM      8  C   UNL     1      -9.035   7.822  72.034  0.00  0.00    +0.121 C 
BRANCH   8   9
ATOM      9  N   UNL     1      -9.354   6.995  73.162  0.00  0.00    +0.301 N 
ATOM     10  C   UNL     1      -9.412   5.564  72.442  0.00  0.00    +0.086 C 
ATOM     11  C   UNL     1     -10.205   4.888  73.715  0.00  0.00    +0.027 A 
ATOM     12  C   UNL     1      -9.434   4.896  74.866  0.00  0.00    -0.012 A 
ATOM     13  C   UNL     1      -9.638   3.844  75.749  0.00  0.00    +0.036 A 
ATOM     14  C   UNL     1     -10.118   2.626  75.277  0.00  0.00    +0.172 A 
ATOM     15  C   UNL     1     -10.776   2.552  74.054  0.00  0.00    +0.172 A 
ATOM     16  C   UNL     1      -8.888   6.196  75.353  0.00  0.00    +0.087 C 
ATOM     17  C   UNL     1     -10.822   3.726  73.312  0.00  0.00    +0.041 A 
ATOM     18  C   UNL     1      -8.294   6.877  74.126  0.00  0.00    +0.114 C 
ATOM     19  C   UNL     1     -10.650   7.217  73.703  0.00  0.00    +0.171 C 
BRANCH  14  20
ATOM     20  O   UNL     1      -9.620   1.423  75.787  0.00  0.00    -0.468 OA
ATOM     21  C   UNL     1      -8.292   1.000  75.522  0.00  0.00    +0.253 C 
ENDBRANCH  14  20
BRANCH  15  22
ATOM     22  O   UNL     1     -11.193   1.326  73.525  0.00  0.00    -0.468 OA
ATOM     23  C   UNL     1     -12.604   1.153  73.433  0.00  0.00    +0.253 C 
ENDBRANCH  15  22
BRANCH  10  24
ATOM     24  C   UNL     1     -10.854   5.931  71.675  0.00  0.00    +0.086 C 
BRANCH  24  25
ATOM     25  C   UNL     1     -10.617   5.394  70.300  0.00  0.00    -0.013 A 
ATOM     26  C   UNL     1     -11.188   5.961  69.174  0.00  0.00    +0.036 A 
ATOM     27  C   UNL     1     -10.527   5.918  67.955  0.00  0.00    +0.172 A 
ATOM     28  C   UNL     1      -9.370   5.169  67.804  0.00  0.00    +0.172 A 
ATOM     29  C   UNL     1      -8.808   4.545  68.912  0.00  0.00    +0.040 A 
ATOM     30  C   UNL     1      -9.410   4.764  70.118  0.00  0.00    -0.001 A 
BRANCH  28  31
ATOM     31  O   UNL     1      -8.630   5.250  66.643  0.00  0.00    -0.468 OA
ATOM     32  C   UNL     1      -7.343   4.647  66.580  0.00  0.00    +0.253 C 
ENDBRANCH  28  31
BRANCH  27  33
ATOM     33  O   UNL     1     -10.918   6.773  66.921  0.00  0.00    -0.468 OA
ATOM     34  C   UNL     1     -10.558   8.137  66.901  0.00  0.00    +0.253 C 
ENDBRANCH  27  33
ENDBRANCH  24  25
ENDBRANCH  10  24
ENDBRANCH   8   9
ENDBRANCH   7   8
ENDBRANCH   5   7
ENDBRANCH   4   5
ENDBRANCH   3   4
ENDBRANCH   2   3
ENDBRANCH   1   2
BRANCH   1  35
ATOM     35  C   UNL     1      -6.265  13.432  67.827  0.00  0.00    +0.048 C 
BRANCH  35  36
ATOM     36  C   UNL     1      -6.156  14.947  67.937  0.00  0.00    +0.208 C 
BRANCH  36  37
ATOM     37  O   UNL     1      -6.858  15.462  66.810  0.00  0.00    -0.448 OA
BRANCH  37  38
ATOM     38  C   UNL     1      -8.194  15.849  66.956  0.00  0.00    +0.323 C 
ATOM     39  O   UNL     1      -8.598  16.057  68.141  0.00  0.00    -0.250 OA
BRANCH  38  40
ATOM     40  C   UNL     1      -9.229  15.253  66.053  0.00  0.00    +0.170 C 
BRANCH  40  41
ATOM     41  C   UNL     1      -9.836  14.066  66.796  0.00  0.00    +0.121 C 
BRANCH  41  43
ATOM     42  C   UNL     1     -11.704  12.548  67.191  0.00  0.00    +0.086 C 
ATOM     43  N   UNL     1     -11.235  14.018  66.753  0.00  0.00    +0.301 N 
ATOM     44  C   UNL     1     -11.825  14.889  67.769  0.00  0.00    +0.171 C 
ATOM     45  C   UNL     1     -11.876  14.300  65.524  0.00  0.00    +0.114 C 
ATOM     46  C   UNL     1     -12.691  13.221  64.903  0.00  0.00    +0.087 C 
ATOM     47  C   UNL     1     -11.783  12.035  64.768  0.00  0.00    -0.012 A 
ATOM     48  C   UNL     1     -11.127  11.741  63.577  0.00  0.00    +0.036 A 
ATOM     49  C   UNL     1      -9.951  10.998  63.580  0.00  0.00    +0.172 A 
ATOM     50  C   UNL     1      -9.275  10.811  64.782  0.00  0.00    +0.172 A 
ATOM     51  C   UNL     1      -9.703  11.529  65.894  0.00  0.00    +0.041 A 
ATOM     52  C   UNL     1     -10.981  11.865  65.894  0.00  0.00    +0.027 A 
BRANCH  50  53
ATOM     53  O   UNL     1      -8.197   9.926  64.889  0.00  0.00    -0.468 OA
ATOM     54  C   UNL     1      -6.946  10.473  65.257  0.00  0.00    +0.253 C 
ENDBRANCH  50  53
BRANCH  49  55
ATOM     55  O   UNL     1      -9.620  10.179  62.495  0.00  0.00    -0.468 OA
ATOM     56  C   UNL     1      -8.553  10.538  61.655  0.00  0.00    +0.253 C 
ENDBRANCH  49  55
BRANCH  42  57
ATOM     57  C   UNL     1     -10.405  12.314  68.232  0.00  0.00    +0.086 C 
BRANCH  57  61
ATOM     58  C   UNL     1     -12.673  10.147  70.907  0.00  0.00    +0.172 A 
ATOM     59  C   UNL     1     -12.678  11.527  71.076  0.00  0.00    +0.172 A 
ATOM     60  C   UNL     1     -11.862  12.339  70.299  0.00  0.00    +0.036 A 
ATOM     61  C   UNL     1     -10.997  11.720  69.435  0.00  0.00    -0.013 A 
ATOM     62  C   UNL     1     -10.630  10.417  69.753  0.00  0.00    -0.001 A 
ATOM     63  C   UNL     1     -11.501   9.570  70.433  0.00  0.00    +0.040 A 
BRANCH  58  65
ATOM     64  C   UNL     1     -13.960   8.336  71.824  0.00  0.00    +0.253 C 
ATOM     65  O   UNL     1     -13.885   9.452  70.944  0.00  0.00    -0.468 OA
ENDBRANCH  58  65
BRANCH  59  66
ATOM     66  O   UNL     1     -13.526  12.029  72.060  0.00  0.00    -0.468 OA
ATOM     67  C   UNL     1     -13.613  13.425  72.309  0.00  0.00    +0.253 C 
ENDBRANCH  59  66
ENDBRANCH  57  61
ENDBRANCH  42  57
ENDBRANCH  41  43
ENDBRANCH  40  41
ENDBRANCH  38  40
ENDBRANCH  37  38
ENDBRANCH  36  37
ENDBRANCH  35  36
ENDBRANCH   1  35
TORSDOF 26
ENDMDL
MODEL 6
REMARK VINA RESULT:      -6.6      1.758      2.701
REMARK  Name = 
REMARK  26 active torsions:
REMARK  status: ('A' for Active; 'I' for Inactive)
REMARK    1  A    between atoms: O_2  and  C_3
REMARK    2  A    between atoms: C_6  and  C_7
REMARK    3  A    between atoms: C_7  and  C_8
REMARK    4  A    between atoms: C_11  and  O_12
REMARK    5  A    between atoms: C_14  and  O_15
REMARK    6  A    between atoms: N_21  and  C_23
REMARK    7  A    between atoms: C_23  and  C_24
REMARK    8  A    between atoms: C_24  and  C_25
REMARK    9  A    between atoms: C_25  and  O_27
REMARK   10  A    between atoms: O_27  and  C_28
REMARK   11  A    between atoms: C_28  and  C_29
REMARK   12  A    between atoms: C_29  and  C_30
REMARK   13  A    between atoms: C_30  and  C_31
REMARK   14  A    between atoms: C_31  and  C_32
REMARK   15  A    between atoms: C_32  and  O_33
REMARK   16  A    between atoms: O_33  and  C_34
REMARK   17  A    between atoms: C_34  and  C_36
REMARK   18  A    between atoms: C_36  and  C_37
REMARK   19  A    between atoms: C_37  and  N_38
REMARK   20  A    between atoms: C_44  and  O_45
REMARK   21  A    between atoms: C_47  and  O_48
REMARK   22  A    between atoms: C_52  and  C_53
REMARK   23  A    between atoms: C_53  and  C_54
REMARK   24  A    between atoms: C_57  and  O_58
REMARK   25  A    between atoms: C_60  and  O_61
REMARK   26  A    between atoms: C_65  and  O_66
REMARK                            x       y       z     vdW  Elec       q    Type
REMARK                         _______ _______ _______ _____ _____    ______ ____
ROOT
ATOM      1  C   UNL     1     -10.345  10.929  65.700  0.00  0.00    +0.008 C 
ENDROOT
BRANCH   1   2
ATOM      2  C   UNL     1     -10.050  10.909  64.206  0.00  0.00    +0.048 C 
BRANCH   2   3
ATOM      3  C   UNL     1     -10.960  11.948  63.574  0.00  0.00    +0.208 C 
BRANCH   3   4
ATOM      4  O   UNL     1     -11.743  12.469  64.647  0.00  0.00    -0.448 OA
BRANCH   4   5
ATOM      5  C   UNL     1     -12.078  13.821  64.523  0.00  0.00    +0.323 C 
ATOM      6  O   UNL     1     -12.621  14.123  63.417  0.00  0.00    -0.250 OA
BRANCH   5   7
ATOM      7  C   UNL     1     -11.069  14.795  65.025  0.00  0.00    +0.170 C 
BRANCH   7   8
ATOM      8  C   UNL     1     -10.905  14.469  66.506  0.00  0.00    +0.121 C 
BRANCH   8   9
ATOM      9  N   UNL     1     -10.466  15.673  67.152  0.00  0.00    +0.301 N 
ATOM     10  C   UNL     1      -8.892  15.381  67.225  0.00  0.00    +0.086 C 
ATOM     11  C   UNL     1      -8.662  16.564  68.344  0.00  0.00    +0.027 A 
ATOM     12  C   UNL     1      -8.969  17.817  67.839  0.00  0.00    -0.012 A 
ATOM     13  C   UNL     1      -8.236  18.881  68.350  0.00  0.00    +0.036 A 
ATOM     14  C   UNL     1      -6.960  18.662  68.859  0.00  0.00    +0.172 A 
ATOM     15  C   UNL     1      -6.563  17.387  69.247  0.00  0.00    +0.172 A 
ATOM     16  C   UNL     1     -10.325  18.044  67.259  0.00  0.00    +0.087 C 
ATOM     17  C   UNL     1      -7.467  16.362  68.995  0.00  0.00    +0.041 A 
ATOM     18  C   UNL     1     -10.582  16.855  66.342  0.00  0.00    +0.114 C 
ATOM     19  C   UNL     1     -10.904  15.809  68.498  0.00  0.00    +0.171 C 
BRANCH  14  20
ATOM     20  O   UNL     1      -5.936  19.585  68.627  0.00  0.00    -0.468 OA
ATOM     21  C   UNL     1      -5.638  20.612  69.560  0.00  0.00    +0.253 C 
ENDBRANCH  14  20
BRANCH  15  22
ATOM     22  O   UNL     1      -5.259  17.132  69.685  0.00  0.00    -0.468 OA
ATOM     23  C   UNL     1      -5.142  16.129  70.691  0.00  0.00    +0.253 C 
ENDBRANCH  15  22
BRANCH  10  24
ATOM     24  C   UNL     1      -9.091  14.223  68.418  0.00  0.00    +0.086 C 
BRANCH  24  25
ATOM     25  C   UNL     1      -8.192  13.128  67.939  0.00  0.00    -0.013 A 
ATOM     26  C   UNL     1      -6.980  13.382  67.320  0.00  0.00    +0.036 A 
ATOM     27  C   UNL     1      -5.924  12.495  67.458  0.00  0.00    +0.172 A 
ATOM     28  C   UNL     1      -6.108  11.266  68.073  0.00  0.00    +0.172 A 
ATOM     29  C   UNL     1      -7.335  10.967  68.654  0.00  0.00    +0.040 A 
ATOM     30  C   UNL     1      -8.285  11.949  68.636  0.00  0.00    -0.001 A 
BRANCH  28  31
ATOM     31  O   UNL     1      -5.030  10.451  68.349  0.00  0.00    -0.468 OA
ATOM     32  C   UNL     1      -4.738   9.348  67.499  0.00  0.00    +0.253 C 
ENDBRANCH  28  31
BRANCH  27  33
ATOM     33  O   UNL     1      -4.625  12.904  67.143  0.00  0.00    -0.468 OA
ATOM     34  C   UNL     1      -3.956  13.904  67.880  0.00  0.00    +0.253 C 
ENDBRANCH  27  33
ENDBRANCH  24  25
ENDBRANCH  10  24
ENDBRANCH   8   9
ENDBRANCH   7   8
ENDBRANCH   5   7
ENDBRANCH   4   5
ENDBRANCH   3   4
ENDBRANCH   2   3
ENDBRANCH   1   2
BRANCH   1  35
ATOM     35  C   UNL     1     -10.084   9.561  66.277  0.00  0.00    +0.048 C 
BRANCH  35  36
ATOM     36  C   UNL     1      -9.014   8.808  65.499  0.00  0.00    +0.208 C 
BRANCH  36  37
ATOM     37  O   UNL     1      -8.000   8.499  66.449  0.00  0.00    -0.448 OA
BRANCH  37  38
ATOM     38  C   UNL     1      -7.553   7.178  66.564  0.00  0.00    +0.323 C 
ATOM     39  O   UNL     1      -8.009   6.349  65.719  0.00  0.00    -0.250 OA
BRANCH  38  40
ATOM     40  C   UNL     1      -7.328   6.601  67.927  0.00  0.00    +0.170 C 
BRANCH  40  41
ATOM     41  C   UNL     1      -8.353   7.245  68.856  0.00  0.00    +0.121 C 
BRANCH  41  43
ATOM     42  C   UNL     1     -10.031   7.047  70.617  0.00  0.00    +0.086 C 
ATOM     43  N   UNL     1      -9.306   6.354  69.365  0.00  0.00    +0.301 N 
ATOM     44  C   UNL     1     -10.392   6.139  68.409  0.00  0.00    +0.171 C 
ATOM     45  C   UNL     1      -8.866   5.083  69.803  0.00  0.00    +0.114 C 
ATOM     46  C   UNL     1      -9.057   4.740  71.238  0.00  0.00    +0.087 C 
ATOM     47  C   UNL     1      -8.393   5.832  72.023  0.00  0.00    -0.012 A 
ATOM     48  C   UNL     1      -7.104   5.697  72.528  0.00  0.00    +0.036 A 
ATOM     49  C   UNL     1      -6.324   6.820  72.790  0.00  0.00    +0.172 A 
ATOM     50  C   UNL     1      -6.716   8.049  72.268  0.00  0.00    +0.172 A 
ATOM     51  C   UNL     1      -7.765   8.070  71.355  0.00  0.00    +0.041 A 
ATOM     52  C   UNL     1      -8.641   7.088  71.476  0.00  0.00    +0.027 A 
BRANCH  50  53
ATOM     53  O   UNL     1      -6.087   9.241  72.645  0.00  0.00    -0.468 OA
ATOM     54  C   UNL     1      -5.108   9.759  71.766  0.00  0.00    +0.253 C 
ENDBRANCH  50  53
BRANCH  49  55
ATOM     55  O   UNL     1      -5.368   6.803  73.811  0.00  0.00    -0.468 OA
ATOM     56  C   UNL     1      -4.028   6.518  73.501  0.00  0.00    +0.253 C 
ENDBRANCH  49  55
BRANCH  42  57
ATOM     57  C   UNL     1      -9.874   8.603  69.998  0.00  0.00    +0.086 C 
BRANCH  57  61
ATOM     58  C   UNL     1     -12.925  11.015  71.363  0.00  0.00    +0.172 A 
ATOM     59  C   UNL     1     -13.078   9.650  71.583  0.00  0.00    +0.172 A 
ATOM     60  C   UNL     1     -12.162   8.742  71.065  0.00  0.00    +0.036 A 
ATOM     61  C   UNL     1     -11.168   9.239  70.264  0.00  0.00    -0.013 A 
ATOM     62  C   UNL     1     -11.431  10.446  69.625  0.00  0.00    -0.001 A 
ATOM     63  C   UNL     1     -12.262  11.401  70.205  0.00  0.00    +0.040 A 
BRANCH  58  65
ATOM     64  C   UNL     1     -13.567  13.227  72.050  0.00  0.00    +0.253 C 
ATOM     65  O   UNL     1     -13.180  11.905  72.410  0.00  0.00    -0.468 OA
ENDBRANCH  58  65
BRANCH  59  66
ATOM     66  O   UNL     1     -14.189   9.261  72.327  0.00  0.00    -0.468 OA
ATOM     67  C   UNL     1     -14.876   8.053  72.038  0.00  0.00    +0.253 C 
ENDBRANCH  59  66
ENDBRANCH  57  61
ENDBRANCH  42  57
ENDBRANCH  41  43
ENDBRANCH  40  41
ENDBRANCH  38  40
ENDBRANCH  37  38
ENDBRANCH  36  37
ENDBRANCH  35  36
ENDBRANCH   1  35
TORSDOF 26
ENDMDL
MODEL 7
REMARK VINA RESULT:      -6.6      2.341     10.215
REMARK  Name = 
REMARK  26 active torsions:
REMARK  status: ('A' for Active; 'I' for Inactive)
REMARK    1  A    between atoms: O_2  and  C_3
REMARK    2  A    between atoms: C_6  and  C_7
REMARK    3  A    between atoms: C_7  and  C_8
REMARK    4  A    between atoms: C_11  and  O_12
REMARK    5  A    between atoms: C_14  and  O_15
REMARK    6  A    between atoms: N_21  and  C_23
REMARK    7  A    between atoms: C_23  and  C_24
REMARK    8  A    between atoms: C_24  and  C_25
REMARK    9  A    between atoms: C_25  and  O_27
REMARK   10  A    between atoms: O_27  and  C_28
REMARK   11  A    between atoms: C_28  and  C_29
REMARK   12  A    between atoms: C_29  and  C_30
REMARK   13  A    between atoms: C_30  and  C_31
REMARK   14  A    between atoms: C_31  and  C_32
REMARK   15  A    between atoms: C_32  and  O_33
REMARK   16  A    between atoms: O_33  and  C_34
REMARK   17  A    between atoms: C_34  and  C_36
REMARK   18  A    between atoms: C_36  and  C_37
REMARK   19  A    between atoms: C_37  and  N_38
REMARK   20  A    between atoms: C_44  and  O_45
REMARK   21  A    between atoms: C_47  and  O_48
REMARK   22  A    between atoms: C_52  and  C_53
REMARK   23  A    between atoms: C_53  and  C_54
REMARK   24  A    between atoms: C_57  and  O_58
REMARK   25  A    between atoms: C_60  and  O_61
REMARK   26  A    between atoms: C_65  and  O_66
REMARK                            x       y       z     vdW  Elec       q    Type
REMARK                         _______ _______ _______ _____ _____    ______ ____
ROOT
ATOM      1  C   UNL     1     -10.181  11.746  63.687  0.00  0.00    +0.008 C 
ENDROOT
BRANCH   1   2
ATOM      2  C   UNL     1      -9.801  10.316  64.044  0.00  0.00    +0.048 C 
BRANCH   2   3
ATOM      3  C   UNL     1      -8.894  10.401  65.260  0.00  0.00    +0.208 C 
BRANCH   3   4
ATOM      4  O   UNL     1      -9.603   9.741  66.308  0.00  0.00    -0.448 OA
BRANCH   4   5
ATOM      5  C   UNL     1      -8.800   9.285  67.358  0.00  0.00    +0.323 C 
ATOM      6  O   UNL     1      -8.217   8.183  67.126  0.00  0.00    -0.250 OA
BRANCH   5   7
ATOM      7  C   UNL     1      -9.367   9.430  68.728  0.00  0.00    +0.170 C 
BRANCH   7   8
ATOM      8  C   UNL     1     -10.449   8.359  68.825  0.00  0.00    +0.121 C 
BRANCH   8   9
ATOM      9  N   UNL     1     -10.533   7.973  70.205  0.00  0.00    +0.301 N 
ATOM     10  C   UNL     1      -9.659   6.630  70.164  0.00  0.00    +0.086 C 
ATOM     11  C   UNL     1     -10.242   6.134  71.619  0.00  0.00    +0.027 A 
ATOM     12  C   UNL     1      -9.881   6.997  72.641  0.00  0.00    -0.012 A 
ATOM     13  C   UNL     1      -9.696   6.423  73.892  0.00  0.00    +0.036 A 
ATOM     14  C   UNL     1      -9.337   5.083  73.994  0.00  0.00    +0.172 A 
ATOM     15  C   UNL     1      -9.553   4.211  72.932  0.00  0.00    +0.172 A 
ATOM     16  C   UNL     1     -10.234   8.441  72.517  0.00  0.00    +0.087 C 
ATOM     17  C   UNL     1     -10.040   4.781  71.763  0.00  0.00    +0.041 A 
ATOM     18  C   UNL     1      -9.826   8.843  71.105  0.00  0.00    +0.114 C 
ATOM     19  C   UNL     1     -11.833   7.584  70.626  0.00  0.00    +0.171 C 
BRANCH  14  20
ATOM     20  O   UNL     1      -8.411   4.669  74.957  0.00  0.00    -0.468 OA
ATOM     21  C   UNL     1      -7.224   5.405  75.207  0.00  0.00    +0.253 C 
ENDBRANCH  14  20
BRANCH  15  22
ATOM     22  O   UNL     1      -9.125   2.880  72.985  0.00  0.00    -0.468 OA
ATOM     23  C   UNL     1      -9.234   2.159  71.761  0.00  0.00    +0.253 C 
ENDBRANCH  15  22
BRANCH  10  24
ATOM     24  C   UNL     1     -10.855   5.794  69.343  0.00  0.00    +0.086 C 
BRANCH  24  25
ATOM     25  C   UNL     1     -10.091   5.206  68.200  0.00  0.00    -0.013 A 
ATOM     26  C   UNL     1      -9.399   4.012  68.307  0.00  0.00    +0.036 A 
ATOM     27  C   UNL     1      -9.259   3.182  67.205  0.00  0.00    +0.172 A 
ATOM     28  C   UNL     1      -9.659   3.604  65.946  0.00  0.00    +0.172 A 
ATOM     29  C   UNL     1     -10.307   4.826  65.807  0.00  0.00    +0.040 A 
ATOM     30  C   UNL     1     -10.570   5.522  66.952  0.00  0.00    -0.001 A 
BRANCH  28  31
ATOM     31  O   UNL     1      -9.664   2.727  64.882  0.00  0.00    -0.468 OA
ATOM     32  C   UNL     1     -10.421   3.031  63.716  0.00  0.00    +0.253 C 
ENDBRANCH  28  31
BRANCH  27  33
ATOM     33  O   UNL     1      -8.883   1.848  67.382  0.00  0.00    -0.468 OA
ATOM     34  C   UNL     1      -9.597   0.975  68.231  0.00  0.00    +0.253 C 
ENDBRANCH  27  33
ENDBRANCH  24  25
ENDBRANCH  10  24
ENDBRANCH   8   9
ENDBRANCH   7   8
ENDBRANCH   5   7
ENDBRANCH   4   5
ENDBRANCH   3   4
ENDBRANCH   2   3
ENDBRANCH   1   2
BRANCH   1  35
ATOM     35  C   UNL     1     -11.614  11.995  64.082  0.00  0.00    +0.048 C 
BRANCH  35  36
ATOM     36  C   UNL     1     -12.161  13.276  63.467  0.00  0.00    +0.208 C 
BRANCH  36  37
ATOM     37  O   UNL     1     -12.432  14.140  64.566  0.00  0.00    -0.448 OA
BRANCH  37  38
ATOM     38  C   UNL     1     -11.684  15.313  64.711  0.00  0.00    +0.323 C 
ATOM     39  O   UNL     1     -11.899  16.232  63.862  0.00  0.00    -0.250 OA
BRANCH  38  40
ATOM     40  C   UNL     1     -10.261  15.220  65.166  0.00  0.00    +0.170 C 
BRANCH  40  41
ATOM     41  C   UNL     1     -10.267  15.394  66.682  0.00  0.00    +0.121 C 
BRANCH  41  43
ATOM     42  C   UNL     1      -9.486  14.849  68.928  0.00  0.00    +0.086 C 
ATOM     43  N   UNL     1      -9.455  14.481  67.367  0.00  0.00    +0.301 N 
ATOM     44  C   UNL     1     -10.017  13.132  67.316  0.00  0.00    +0.171 C 
ATOM     45  C   UNL     1      -8.093  14.390  66.997  0.00  0.00    +0.114 C 
ATOM     46  C   UNL     1      -7.072  14.733  68.024  0.00  0.00    +0.087 C 
ATOM     47  C   UNL     1      -7.402  16.118  68.497  0.00  0.00    -0.012 A 
ATOM     48  C   UNL     1      -6.760  17.243  67.991  0.00  0.00    +0.036 A 
ATOM     49  C   UNL     1      -7.375  18.490  68.033  0.00  0.00    +0.172 A 
ATOM     50  C   UNL     1      -8.740  18.559  68.299  0.00  0.00    +0.172 A 
ATOM     51  C   UNL     1      -9.463  17.371  68.329  0.00  0.00    +0.041 A 
ATOM     52  C   UNL     1      -8.773  16.296  68.664  0.00  0.00    +0.027 A 
BRANCH  50  53
ATOM     53  O   UNL     1      -9.380  19.780  68.538  0.00  0.00    -0.468 OA
ATOM     54  C   UNL     1      -9.910  20.461  67.418  0.00  0.00    +0.253 C 
ENDBRANCH  50  53
BRANCH  49  55
ATOM     55  O   UNL     1      -6.615  19.659  68.139  0.00  0.00    -0.468 OA
ATOM     56  C   UNL     1      -6.301  20.169  69.410  0.00  0.00    +0.253 C 
ENDBRANCH  49  55
BRANCH  42  57
ATOM     57  C   UNL     1     -11.058  15.441  68.879  0.00  0.00    +0.086 C 
BRANCH  57  61
ATOM     58  C   UNL     1     -13.604  14.233  71.888  0.00  0.00    +0.172 A 
ATOM     59  C   UNL     1     -12.892  15.405  72.121  0.00  0.00    +0.172 A 
ATOM     60  C   UNL     1     -11.928  15.839  71.221  0.00  0.00    +0.036 A 
ATOM     61  C   UNL     1     -11.650  15.025  70.155  0.00  0.00    -0.013 A 
ATOM     62  C   UNL     1     -11.932  13.672  70.318  0.00  0.00    -0.001 A 
ATOM     63  C   UNL     1     -12.976  13.249  71.136  0.00  0.00    +0.040 A 
BRANCH  58  65
ATOM     64  C   UNL     1     -15.812  15.016  71.350  0.00  0.00    +0.253 C 
ATOM     65  O   UNL     1     -14.974  14.203  72.164  0.00  0.00    -0.468 OA
ENDBRANCH  58  65
BRANCH  59  66
ATOM     66  O   UNL     1     -13.193  16.093  73.294  0.00  0.00    -0.468 OA
ATOM     67  C   UNL     1     -12.425  15.901  74.473  0.00  0.00    +0.253 C 
ENDBRANCH  59  66
ENDBRANCH  57  61
ENDBRANCH  42  57
ENDBRANCH  41  43
ENDBRANCH  40  41
ENDBRANCH  38  40
ENDBRANCH  37  38
ENDBRANCH  36  37
ENDBRANCH  35  36
ENDBRANCH   1  35
TORSDOF 26
ENDMDL
MODEL 8
REMARK VINA RESULT:      -6.6      2.177      8.948
REMARK  Name = 
REMARK  26 active torsions:
REMARK  status: ('A' for Active; 'I' for Inactive)
REMARK    1  A    between atoms: O_2  and  C_3
REMARK    2  A    between atoms: C_6  and  C_7
REMARK    3  A    between atoms: C_7  and  C_8
REMARK    4  A    between atoms: C_11  and  O_12
REMARK    5  A    between atoms: C_14  and  O_15
REMARK    6  A    between atoms: N_21  and  C_23
REMARK    7  A    between atoms: C_23  and  C_24
REMARK    8  A    between atoms: C_24  and  C_25
REMARK    9  A    between atoms: C_25  and  O_27
REMARK   10  A    between atoms: O_27  and  C_28
REMARK   11  A    between atoms: C_28  and  C_29
REMARK   12  A    between atoms: C_29  and  C_30
REMARK   13  A    between atoms: C_30  and  C_31
REMARK   14  A    between atoms: C_31  and  C_32
REMARK   15  A    between atoms: C_32  and  O_33
REMARK   16  A    between atoms: O_33  and  C_34
REMARK   17  A    between atoms: C_34  and  C_36
REMARK   18  A    between atoms: C_36  and  C_37
REMARK   19  A    between atoms: C_37  and  N_38
REMARK   20  A    between atoms: C_44  and  O_45
REMARK   21  A    between atoms: C_47  and  O_48
REMARK   22  A    between atoms: C_52  and  C_53
REMARK   23  A    between atoms: C_53  and  C_54
REMARK   24  A    between atoms: C_57  and  O_58
REMARK   25  A    between atoms: C_60  and  O_61
REMARK   26  A    between atoms: C_65  and  O_66
REMARK                            x       y       z     vdW  Elec       q    Type
REMARK                         _______ _______ _______ _____ _____    ______ ____
ROOT
ATOM      1  C   UNL     1     -10.972  11.402  64.466  0.00  0.00    +0.008 C 
ENDROOT
BRANCH   1   2
ATOM      2  C   UNL     1     -10.337  11.384  63.082  0.00  0.00    +0.048 C 
BRANCH   2   3
ATOM      3  C   UNL     1      -8.947  10.795  63.253  0.00  0.00    +0.208 C 
BRANCH   3   4
ATOM      4  O   UNL     1      -8.887  10.355  64.609  0.00  0.00    -0.448 OA
BRANCH   4   5
ATOM      5  C   UNL     1      -7.654   9.818  64.993  0.00  0.00    +0.323 C 
ATOM      6  O   UNL     1      -7.594   8.552  64.924  0.00  0.00    -0.250 OA
BRANCH   5   7
ATOM      7  C   UNL     1      -7.023  10.421  66.201  0.00  0.00    +0.170 C 
BRANCH   7   8
ATOM      8  C   UNL     1      -7.834   9.890  67.378  0.00  0.00    +0.121 C 
BRANCH   8   9
ATOM      9  N   UNL     1      -6.921   9.726  68.473  0.00  0.00    +0.301 N 
ATOM     10  C   UNL     1      -7.806   8.785  69.423  0.00  0.00    +0.086 C 
ATOM     11  C   UNL     1      -6.847   9.093  70.723  0.00  0.00    +0.027 A 
ATOM     12  C   UNL     1      -5.555   8.629  70.534  0.00  0.00    -0.012 A 
ATOM     13  C   UNL     1      -4.881   8.208  71.672  0.00  0.00    +0.036 A 
ATOM     14  C   UNL     1      -5.598   7.751  72.773  0.00  0.00    +0.172 A 
ATOM     15  C   UNL     1      -6.941   8.078  72.928  0.00  0.00    +0.172 A 
ATOM     16  C   UNL     1      -4.798   9.089  69.334  0.00  0.00    +0.087 C 
ATOM     17  C   UNL     1      -7.522   8.784  71.882  0.00  0.00    +0.041 A 
ATOM     18  C   UNL     1      -5.758   8.941  68.160  0.00  0.00    +0.114 C 
ATOM     19  C   UNL     1      -6.675  10.914  69.215  0.00  0.00    +0.171 C 
BRANCH  14  20
ATOM     20  O   UNL     1      -5.138   6.657  73.514  0.00  0.00    -0.468 OA
ATOM     21  C   UNL     1      -4.282   5.682  72.940  0.00  0.00    +0.253 C 
ENDBRANCH  14  20
BRANCH  15  22
ATOM     22  O   UNL     1      -7.699   7.562  73.984  0.00  0.00    -0.468 OA
ATOM     23  C   UNL     1      -9.110   7.584  73.786  0.00  0.00    +0.253 C 
ENDBRANCH  15  22
BRANCH  10  24
ATOM     24  C   UNL     1      -8.837  10.041  69.824  0.00  0.00    +0.086 C 
BRANCH  24  25
ATOM     25  C   UNL     1     -10.161   9.347  69.876  0.00  0.00    -0.013 A 
ATOM     26  C   UNL     1     -10.278   7.969  69.840  0.00  0.00    +0.036 A 
ATOM     27  C   UNL     1     -11.322   7.336  70.497  0.00  0.00    +0.172 A 
ATOM     28  C   UNL     1     -12.354   8.072  71.059  0.00  0.00    +0.172 A 
ATOM     29  C   UNL     1     -12.284   9.460  71.058  0.00  0.00    +0.040 A 
ATOM     30  C   UNL     1     -11.150  10.024  70.547  0.00  0.00    -0.001 A 
BRANCH  28  31
ATOM     31  O   UNL     1     -13.307   7.458  71.844  0.00  0.00    -0.468 OA
ATOM     32  C   UNL     1     -14.561   8.093  72.064  0.00  0.00    +0.253 C 
ENDBRANCH  28  31
BRANCH  27  33
ATOM     33  O   UNL     1     -11.250   5.965  70.759  0.00  0.00    -0.468 OA
ATOM     34  C   UNL     1     -10.493   5.087  69.955  0.00  0.00    +0.253 C 
ENDBRANCH  27  33
ENDBRANCH  24  25
ENDBRANCH  10  24
ENDBRANCH   8   9
ENDBRANCH   7   8
ENDBRANCH   5   7
ENDBRANCH   4   5
ENDBRANCH   3   4
ENDBRANCH   2   3
ENDBRANCH   1   2
BRANCH   1  35
ATOM     35  C   UNL     1     -12.250  12.199  64.418  0.00  0.00    +0.048 C 
BRANCH  35  36
ATOM     36  C   UNL     1     -12.154  13.372  63.452  0.00  0.00    +0.208 C 
BRANCH  36  37
ATOM     37  O   UNL     1     -12.558  14.514  64.199  0.00  0.00    -0.448 OA
BRANCH  37  38
ATOM     38  C   UNL     1     -11.594  15.446  64.598  0.00  0.00    +0.323 C 
ATOM     39  O   UNL     1     -11.516  16.510  63.912  0.00  0.00    -0.250 OA
BRANCH  38  40
ATOM     40  C   UNL     1     -10.279  14.956  65.119  0.00  0.00    +0.170 C 
BRANCH  40  41
ATOM     41  C   UNL     1     -10.302  15.152  66.633  0.00  0.00    +0.121 C 
BRANCH  41  43
ATOM     42  C   UNL     1      -9.388  14.750  68.859  0.00  0.00    +0.086 C 
ATOM     43  N   UNL     1      -9.499  14.248  67.340  0.00  0.00    +0.301 N 
ATOM     44  C   UNL     1     -10.147  12.941  67.452  0.00  0.00    +0.171 C 
ATOM     45  C   UNL     1      -8.177  14.031  66.886  0.00  0.00    +0.114 C 
ATOM     46  C   UNL     1      -7.061  14.391  67.802  0.00  0.00    +0.087 C 
ATOM     47  C   UNL     1      -7.267  15.830  68.169  0.00  0.00    -0.012 A 
ATOM     48  C   UNL     1      -6.596  16.860  67.519  0.00  0.00    +0.036 A 
ATOM     49  C   UNL     1      -7.127  18.146  67.488  0.00  0.00    +0.172 A 
ATOM     50  C   UNL     1      -8.461  18.332  67.842  0.00  0.00    +0.172 A 
ATOM     51  C   UNL     1      -9.253  17.204  68.031  0.00  0.00    +0.041 A 
ATOM     52  C   UNL     1      -8.608  16.117  68.414  0.00  0.00    +0.027 A 
BRANCH  50  53
ATOM     53  O   UNL     1      -9.003  19.610  68.014  0.00  0.00    -0.468 OA
ATOM     54  C   UNL     1     -10.350  19.797  67.624  0.00  0.00    +0.253 C 
ENDBRANCH  50  53
BRANCH  49  55
ATOM     55  O   UNL     1      -6.289  19.264  67.434  0.00  0.00    -0.468 OA
ATOM     56  C   UNL     1      -4.921  19.093  67.168  0.00  0.00    +0.253 C 
ENDBRANCH  49  55
BRANCH  42  57
ATOM     57  C   UNL     1     -10.919  15.444  68.867  0.00  0.00    +0.086 C 
BRANCH  57  61
ATOM     58  C   UNL     1     -13.446  14.339  71.931  0.00  0.00    +0.172 A 
ATOM     59  C   UNL     1     -12.669  15.470  72.155  0.00  0.00    +0.172 A 
ATOM     60  C   UNL     1     -11.707  15.863  71.233  0.00  0.00    +0.036 A 
ATOM     61  C   UNL     1     -11.499  15.046  70.154  0.00  0.00    -0.013 A 
ATOM     62  C   UNL     1     -11.846  13.708  70.312  0.00  0.00    -0.001 A 
ATOM     63  C   UNL     1     -12.889  13.331  71.153  0.00  0.00    +0.040 A 
BRANCH  58  65
ATOM     64  C   UNL     1     -15.659  15.057  71.325  0.00  0.00    +0.253 C 
ATOM     65  O   UNL     1     -14.808  14.376  72.242  0.00  0.00    -0.468 OA
ENDBRANCH  58  65
BRANCH  59  66
ATOM     66  O   UNL     1     -12.904  16.161  73.341  0.00  0.00    -0.468 OA
ATOM     67  C   UNL     1     -12.413  15.674  74.581  0.00  0.00    +0.253 C 
ENDBRANCH  59  66
ENDBRANCH  57  61
ENDBRANCH  42  57
ENDBRANCH  41  43
ENDBRANCH  40  41
ENDBRANCH  38  40
ENDBRANCH  37  38
ENDBRANCH  36  37
ENDBRANCH  35  36
ENDBRANCH   1  35
TORSDOF 26
ENDMDL
MODEL 9
REMARK VINA RESULT:      -6.6      2.288     10.439
REMARK  Name = 
REMARK  26 active torsions:
REMARK  status: ('A' for Active; 'I' for Inactive)
REMARK    1  A    between atoms: O_2  and  C_3
REMARK    2  A    between atoms: C_6  and  C_7
REMARK    3  A    between atoms: C_7  and  C_8
REMARK    4  A    between atoms: C_11  and  O_12
REMARK    5  A    between atoms: C_14  and  O_15
REMARK    6  A    between atoms: N_21  and  C_23
REMARK    7  A    between atoms: C_23  and  C_24
REMARK    8  A    between atoms: C_24  and  C_25
REMARK    9  A    between atoms: C_25  and  O_27
REMARK   10  A    between atoms: O_27  and  C_28
REMARK   11  A    between atoms: C_28  and  C_29
REMARK   12  A    between atoms: C_29  and  C_30
REMARK   13  A    between atoms: C_30  and  C_31
REMARK   14  A    between atoms: C_31  and  C_32
REMARK   15  A    between atoms: C_32  and  O_33
REMARK   16  A    between atoms: O_33  and  C_34
REMARK   17  A    between atoms: C_34  and  C_36
REMARK   18  A    between atoms: C_36  and  C_37
REMARK   19  A    between atoms: C_37  and  N_38
REMARK   20  A    between atoms: C_44  and  O_45
REMARK   21  A    between atoms: C_47  and  O_48
REMARK   22  A    between atoms: C_52  and  C_53
REMARK   23  A    between atoms: C_53  and  C_54
REMARK   24  A    between atoms: C_57  and  O_58
REMARK   25  A    between atoms: C_60  and  O_61
REMARK   26  A    between atoms: C_65  and  O_66
REMARK                            x       y       z     vdW  Elec       q    Type
REMARK                         _______ _______ _______ _____ _____    ______ ____
ROOT
ATOM      1  C   UNL     1     -11.688  11.109  70.252  0.00  0.00    +0.008 C 
ENDROOT
BRANCH   1   2
ATOM      2  C   UNL     1     -12.952  10.283  70.441  0.00  0.00    +0.048 C 
BRANCH   2   3
ATOM      3  C   UNL     1     -12.791   9.541  71.756  0.00  0.00    +0.208 C 
BRANCH   3   4
ATOM      4  O   UNL     1     -11.385   9.502  71.999  0.00  0.00    -0.448 OA
BRANCH   4   5
ATOM      5  C   UNL     1     -10.843   8.216  72.086  0.00  0.00    +0.323 C 
ATOM      6  O   UNL     1     -10.937   7.689  73.236  0.00  0.00    -0.250 OA
BRANCH   5   7
ATOM      7  C   UNL     1      -9.542   8.004  71.392  0.00  0.00    +0.170 C 
BRANCH   7   8
ATOM      8  C   UNL     1      -9.877   8.025  69.905  0.00  0.00    +0.121 C 
BRANCH   8   9
ATOM      9  N   UNL     1      -9.978   6.658  69.480  0.00  0.00    +0.301 N 
ATOM     10  C   UNL     1      -9.392   6.794  67.994  0.00  0.00    +0.086 C 
ATOM     11  C   UNL     1     -10.001   5.331  67.555  0.00  0.00    +0.027 A 
ATOM     12  C   UNL     1      -9.433   4.297  68.281  0.00  0.00    -0.012 A 
ATOM     13  C   UNL     1      -9.313   3.079  67.624  0.00  0.00    +0.036 A 
ATOM     14  C   UNL     1      -9.224   3.046  66.236  0.00  0.00    +0.172 A 
ATOM     15  C   UNL     1      -9.654   4.126  65.474  0.00  0.00    +0.172 A 
ATOM     16  C   UNL     1      -9.495   4.348  69.771  0.00  0.00    +0.087 C 
ATOM     17  C   UNL     1     -10.067   5.248  66.183  0.00  0.00    +0.041 A 
ATOM     18  C   UNL     1      -9.075   5.763  70.149  0.00  0.00    +0.114 C 
ATOM     19  C   UNL     1     -11.311   6.187  69.335  0.00  0.00    +0.171 C 
BRANCH  14  20
ATOM     20  O   UNL     1      -8.360   2.147  65.603  0.00  0.00    -0.468 OA
ATOM     21  C   UNL     1      -8.792   0.852  65.214  0.00  0.00    +0.253 C 
ENDBRANCH  14  20
BRANCH  15  22
ATOM     22  O   UNL     1      -9.498   4.146  64.084  0.00  0.00    -0.468 OA
ATOM     23  C   UNL     1     -10.574   3.575  63.344  0.00  0.00    +0.253 C 
ENDBRANCH  15  22
BRANCH  10  24
ATOM     24  C   UNL     1     -10.764   7.584  67.449  0.00  0.00    +0.086 C 
BRANCH  24  25
ATOM     25  C   UNL     1     -10.187   8.824  66.845  0.00  0.00    -0.013 A 
ATOM     26  C   UNL     1      -9.362   8.792  65.734  0.00  0.00    +0.036 A 
ATOM     27  C   UNL     1      -9.357   9.848  64.835  0.00  0.00    +0.172 A 
ATOM     28  C   UNL     1     -10.046  11.018  65.114  0.00  0.00    +0.172 A 
ATOM     29  C   UNL     1     -10.838  11.092  66.254  0.00  0.00    +0.040 A 
ATOM     30  C   UNL     1     -10.939   9.960  67.013  0.00  0.00    -0.001 A 
BRANCH  28  31
ATOM     31  O   UNL     1     -10.170  12.004  64.158  0.00  0.00    -0.468 OA
ATOM     32  C   UNL     1     -11.438  12.265  63.568  0.00  0.00    +0.253 C 
ENDBRANCH  28  31
BRANCH  27  33
ATOM     33  O   UNL     1      -8.810   9.674  63.561  0.00  0.00    -0.468 OA
ATOM     34  C   UNL     1      -8.313   8.428  63.123  0.00  0.00    +0.253 C 
ENDBRANCH  27  33
ENDBRANCH  24  25
ENDBRANCH  10  24
ENDBRANCH   8   9
ENDBRANCH   7   8
ENDBRANCH   5   7
ENDBRANCH   4   5
ENDBRANCH   3   4
ENDBRANCH   2   3
ENDBRANCH   1   2
BRANCH   1  35
ATOM     35  C   UNL     1     -12.063  12.503  69.818  0.00  0.00    +0.048 C 
BRANCH  35  36
ATOM     36  C   UNL     1     -12.460  13.380  70.997  0.00  0.00    +0.208 C 
BRANCH  36  37
ATOM     37  O   UNL     1     -11.513  14.443  71.016  0.00  0.00    -0.448 OA
BRANCH  37  38
ATOM     38  C   UNL     1     -11.931  15.734  70.676  0.00  0.00    +0.323 C 
ATOM     39  O   UNL     1     -13.183  15.937  70.650  0.00  0.00    -0.250 OA
BRANCH  38  40
ATOM     40  C   UNL     1     -11.165  16.500  69.643  0.00  0.00    +0.170 C 
BRANCH  40  41
ATOM     41  C   UNL     1     -10.149  15.535  69.039  0.00  0.00    +0.121 C 
BRANCH  41  43
ATOM     42  C   UNL     1      -8.772  14.810  67.159  0.00  0.00    +0.086 C 
ATOM     43  N   UNL     1     -10.120  15.536  67.638  0.00  0.00    +0.301 N 
ATOM     44  C   UNL     1     -11.183  14.695  67.087  0.00  0.00    +0.171 C 
ATOM     45  C   UNL     1     -10.171  16.781  66.969  0.00  0.00    +0.114 C 
ATOM     46  C   UNL     1      -9.008  17.162  66.123  0.00  0.00    +0.087 C 
ATOM     47  C   UNL     1      -7.801  17.085  67.010  0.00  0.00    -0.012 A 
ATOM     48  C   UNL     1      -7.269  18.210  67.630  0.00  0.00    +0.036 A 
ATOM     49  C   UNL     1      -6.518  18.090  68.796  0.00  0.00    +0.172 A 
ATOM     50  C   UNL     1      -6.555  16.890  69.500  0.00  0.00    +0.172 A 
ATOM     51  C   UNL     1      -7.483  15.930  69.111  0.00  0.00    +0.041 A 
ATOM     52  C   UNL     1      -7.837  15.966  67.839  0.00  0.00    +0.027 A 
BRANCH  50  53
ATOM     53  O   UNL     1      -5.686  16.638  70.568  0.00  0.00    -0.468 OA
ATOM     54  C   UNL     1      -4.440  16.046  70.259  0.00  0.00    +0.253 C 
ENDBRANCH  50  53
BRANCH  49  55
ATOM     55  O   UNL     1      -5.498  19.003  69.086  0.00  0.00    -0.468 OA
ATOM     56  C   UNL     1      -5.692  19.961  70.094  0.00  0.00    +0.253 C 
ENDBRANCH  49  55
BRANCH  42  57
ATOM     57  C   UNL     1      -8.719  13.774  68.482  0.00  0.00    +0.086 C 
BRANCH  57  61
ATOM     58  C   UNL     1      -6.056  10.673  67.949  0.00  0.00    +0.172 A 
ATOM     59  C   UNL     1      -6.214  11.537  66.871  0.00  0.00    +0.172 A 
ATOM     60  C   UNL     1      -7.167  12.547  66.906  0.00  0.00    +0.036 A 
ATOM     61  C   UNL     1      -7.993  12.595  67.999  0.00  0.00    -0.013 A 
ATOM     62  C   UNL     1      -8.176  11.402  68.691  0.00  0.00    -0.001 A 
ATOM     63  C   UNL     1      -7.171  10.441  68.745  0.00  0.00    +0.040 A 
BRANCH  58  65
ATOM     64  C   UNL     1      -3.949  11.335  68.898  0.00  0.00    +0.253 C 
ATOM     65  O   UNL     1      -4.766  10.309  68.346  0.00  0.00    -0.468 OA
ENDBRANCH  58  65
BRANCH  59  66
ATOM     66  O   UNL     1      -5.384  11.320  65.774  0.00  0.00    -0.468 OA
ATOM     67  C   UNL     1      -5.566  10.195  64.928  0.00  0.00    +0.253 C 
ENDBRANCH  59  66
ENDBRANCH  57  61
ENDBRANCH  42  57
ENDBRANCH  41  43
ENDBRANCH  40  41
ENDBRANCH  38  40
ENDBRANCH  37  38
ENDBRANCH  36  37
ENDBRANCH  35  36
ENDBRANCH   1  35
TORSDOF 26
ENDMDL
