MODEL 1
REMARK VINA RESULT:      -7.6      0.000      0.000
REMARK  Name = 
REMARK  1 active torsions:
REMARK  status: ('A' for Active; 'I' for Inactive)
REMARK    1  A    between atoms: C_20  and  C_21
REMARK                            x       y       z     vdW  Elec       q    Type
REMARK                         _______ _______ _______ _____ _____    ______ ____
ROOT
ATOM      1  C   UNL     1      -6.784  18.062  66.451  0.00  0.00    +0.004 C 
ATOM      2  C   UNL     1      -7.433  18.153  67.787  0.00  0.00    +0.019 C 
ATOM      3  C   UNL     1      -7.148  19.483  68.304  0.00  0.00    -0.026 C 
ATOM      4  C   UNL     1      -7.532  20.273  67.296  0.00  0.00    -0.030 C 
ATOM      5  C   UNL     1      -8.557  19.586  66.442  0.00  0.00    +0.026 C 
ATOM      6  C   UNL     1      -9.003  18.488  67.548  0.00  0.00    +0.008 C 
ATOM      7  C   UNL     1      -9.113  17.170  66.502  0.00  0.00    +0.005 C 
ATOM      8  C   UNL     1     -10.545  17.625  65.942  0.00  0.00    +0.025 C 
ATOM      9  C   UNL     1     -10.938  16.363  65.229  0.00  0.00    -0.035 C 
ATOM     10  C   UNL     1     -10.337  15.202  65.528  0.00  0.00    -0.047 C 
ATOM     11  C   UNL     1      -9.920  14.890  66.900  0.00  0.00    +0.015 C 
ATOM     12  C   UNL     1      -8.739  14.041  66.970  0.00  0.00    +0.004 C 
ATOM     13  C   UNL     1     -11.050  14.226  67.682  0.00  0.00    +0.006 C 
ATOM     14  C   UNL     1     -11.800  13.202  66.903  0.00  0.00    +0.034 C 
ATOM     15  C   UNL     1     -12.413  14.063  65.634  0.00  0.00    +0.156 C 
ATOM     16  O   UNL     1     -12.907  12.798  64.951  0.00  0.00    -0.223 OA
ATOM     17  C   UNL     1     -10.962  14.011  64.843  0.00  0.00    +0.055 C 
ATOM     18  C   UNL     1      -9.788  16.258  67.752  0.00  0.00    +0.004 C 
ATOM     19  C   UNL     1      -8.356  15.885  68.409  0.00  0.00    +0.001 C 
ATOM     20  C   UNL     1      -7.500  17.009  68.631  0.00  0.00    +0.004 C 
ENDROOT
BRANCH   3  21
ATOM     21  C   UNL     1      -6.151  19.749  69.340  0.00  0.00    +0.015 A 
ATOM     22  C   UNL     1      -5.118  20.610  69.076  0.00  0.00    +0.099 A 
ATOM     23  N   UNL     1      -4.352  21.188  70.026  0.00  0.00    -0.242 NA
ATOM     24  C   UNL     1      -4.524  20.729  71.286  0.00  0.00    +0.099 A 
ATOM     25  C   UNL     1      -5.687  20.063  71.651  0.00  0.00    +0.021 A 
ATOM     26  C   UNL     1      -6.597  19.730  70.655  0.00  0.00    +0.003 A 
ENDBRANCH   3  21
TORSDOF 1
ENDMDL
MODEL 2
REMARK VINA RESULT:      -7.4      3.852      7.731
REMARK  Name = 
REMARK  1 active torsions:
REMARK  status: ('A' for Active; 'I' for Inactive)
REMARK    1  A    between atoms: C_20  and  C_21
REMARK                            x       y       z     vdW  Elec       q    Type
REMARK                         _______ _______ _______ _____ _____    ______ ____
ROOT
ATOM      1  C   UNL     1     -11.637  13.907  67.537  0.00  0.00    +0.004 C 
ATOM      2  C   UNL     1     -10.572  13.470  66.594  0.00  0.00    +0.019 C 
ATOM      3  C   UNL     1     -11.152  12.434  65.753  0.00  0.00    -0.026 C 
ATOM      4  C   UNL     1     -12.269  13.016  65.307  0.00  0.00    -0.030 C 
ATOM      5  C   UNL     1     -12.138  14.511  65.334  0.00  0.00    +0.026 C 
ATOM      6  C   UNL     1     -10.518  14.546  65.381  0.00  0.00    +0.008 C 
ATOM      7  C   UNL     1     -10.367  15.792  66.507  0.00  0.00    +0.005 C 
ATOM      8  C   UNL     1     -10.657  16.929  65.415  0.00  0.00    +0.025 C 
ATOM      9  C   UNL     1     -10.229  18.134  66.203  0.00  0.00    -0.035 C 
ATOM     10  C   UNL     1      -9.432  17.995  67.271  0.00  0.00    -0.047 C 
ATOM     11  C   UNL     1      -8.377  16.976  67.309  0.00  0.00    +0.015 C 
ATOM     12  C   UNL     1      -8.107  16.469  68.647  0.00  0.00    +0.004 C 
ATOM     13  C   UNL     1      -7.077  17.505  66.712  0.00  0.00    +0.006 C 
ATOM     14  C   UNL     1      -6.750  18.899  67.121  0.00  0.00    +0.034 C 
ATOM     15  C   UNL     1      -8.033  19.772  66.558  0.00  0.00    +0.156 C 
ATOM     16  O   UNL     1      -7.554  21.027  67.268  0.00  0.00    -0.223 OA
ATOM     17  C   UNL     1      -8.965  19.312  67.845  0.00  0.00    +0.055 C 
ATOM     18  C   UNL     1      -8.703  15.817  66.229  0.00  0.00    +0.004 C 
ATOM     19  C   UNL     1      -8.398  14.587  67.236  0.00  0.00    +0.001 C 
ATOM     20  C   UNL     1      -9.213  13.432  67.017  0.00  0.00    +0.004 C 
ENDROOT
BRANCH   3  21
ATOM     21  C   UNL     1     -10.874  11.008  65.922  0.00  0.00    +0.015 A 
ATOM     22  C   UNL     1      -9.984  10.391  65.082  0.00  0.00    +0.099 A 
ATOM     23  N   UNL     1      -9.399   9.202  65.340  0.00  0.00    -0.242 NA
ATOM     24  C   UNL     1      -9.878   8.526  66.408  0.00  0.00    +0.099 A 
ATOM     25  C   UNL     1     -10.577   9.181  67.414  0.00  0.00    +0.021 A 
ATOM     26  C   UNL     1     -10.920  10.513  67.219  0.00  0.00    +0.003 A 
ENDBRANCH   3  21
TORSDOF 1
ENDMDL
MODEL 3
REMARK VINA RESULT:      -7.4      3.942      6.905
REMARK  Name = 
REMARK  1 active torsions:
REMARK  status: ('A' for Active; 'I' for Inactive)
REMARK    1  A    between atoms: C_20  and  C_21
REMARK                            x       y       z     vdW  Elec       q    Type
REMARK                         _______ _______ _______ _____ _____    ______ ____
ROOT
ATOM      1  C   UNL     1     -10.829  15.856  67.274  0.00  0.00    +0.004 C 
ATOM      2  C   UNL     1     -10.346  16.159  68.649  0.00  0.00    +0.019 C 
ATOM      3  C   UNL     1     -10.620  14.982  69.460  0.00  0.00    -0.026 C 
ATOM      4  C   UNL     1     -10.072  13.999  68.738  0.00  0.00    -0.030 C 
ATOM      5  C   UNL     1      -8.988  14.534  67.848  0.00  0.00    +0.026 C 
ATOM      6  C   UNL     1      -8.743  15.908  68.671  0.00  0.00    +0.008 C 
ATOM      7  C   UNL     1      -8.576  16.926  67.337  0.00  0.00    +0.005 C 
ATOM      8  C   UNL     1      -7.064  16.466  67.068  0.00  0.00    +0.025 C 
ATOM      9  C   UNL     1      -6.655  17.537  66.098  0.00  0.00    -0.035 C 
ATOM     10  C   UNL     1      -7.350  18.681  66.021  0.00  0.00    -0.047 C 
ATOM     11  C   UNL     1      -7.949  19.291  67.213  0.00  0.00    +0.015 C 
ATOM     12  C   UNL     1      -9.174  20.029  66.935  0.00  0.00    +0.004 C 
ATOM     13  C   UNL     1      -6.962  20.223  67.910  0.00  0.00    +0.006 C 
ATOM     14  C   UNL     1      -6.178  21.078  66.976  0.00  0.00    +0.034 C 
ATOM     15  C   UNL     1      -5.368  19.981  66.045  0.00  0.00    +0.156 C 
ATOM     16  O   UNL     1      -4.863  21.070  65.113  0.00  0.00    -0.223 OA
ATOM     17  C   UNL     1      -6.711  19.710  65.119  0.00  0.00    +0.055 C 
ATOM     18  C   UNL     1      -8.111  18.175  68.372  0.00  0.00    +0.004 C 
ATOM     19  C   UNL     1      -9.631  18.580  68.755  0.00  0.00    +0.001 C 
ATOM     20  C   UNL     1     -10.446  17.480  69.169  0.00  0.00    +0.004 C 
ENDROOT
BRANCH   3  21
ATOM     21  C   UNL     1     -11.721  14.902  70.419  0.00  0.00    +0.015 A 
ATOM     22  C   UNL     1     -12.396  13.719  70.574  0.00  0.00    +0.099 A 
ATOM     23  N   UNL     1     -13.177  13.427  71.634  0.00  0.00    -0.242 NA
ATOM     24  C   UNL     1     -13.431  14.447  72.483  0.00  0.00    +0.099 A 
ATOM     25  C   UNL     1     -12.606  15.564  72.524  0.00  0.00    +0.021 A 
ATOM     26  C   UNL     1     -11.613  15.687  71.560  0.00  0.00    +0.003 A 
ENDBRANCH   3  21
TORSDOF 1
ENDMDL
MODEL 4
REMARK VINA RESULT:      -7.3      3.766      7.651
REMARK  Name = 
REMARK  1 active torsions:
REMARK  status: ('A' for Active; 'I' for Inactive)
REMARK    1  A    between atoms: C_20  and  C_21
REMARK                            x       y       z     vdW  Elec       q    Type
REMARK                         _______ _______ _______ _____ _____    ______ ____
ROOT
ATOM      1  C   UNL     1      -9.691  18.324  68.545  0.00  0.00    +0.004 C 
ATOM      2  C   UNL     1      -8.903  17.515  67.576  0.00  0.00    +0.019 C 
ATOM      3  C   UNL     1      -9.798  17.180  66.479  0.00  0.00    -0.026 C 
ATOM      4  C   UNL     1     -10.293  18.373  66.136  0.00  0.00    -0.030 C 
ATOM      5  C   UNL     1      -9.354  19.474  66.536  0.00  0.00    +0.026 C 
ATOM      6  C   UNL     1      -8.035  18.542  66.669  0.00  0.00    +0.008 C 
ATOM      7  C   UNL     1      -7.420  19.246  68.073  0.00  0.00    +0.005 C 
ATOM      8  C   UNL     1      -6.818  20.503  67.282  0.00  0.00    +0.025 C 
ATOM      9  C   UNL     1      -5.941  21.070  68.361  0.00  0.00    -0.035 C 
ATOM     10  C   UNL     1      -5.570  20.308  69.400  0.00  0.00    -0.047 C 
ATOM     11  C   UNL     1      -5.296  18.876  69.237  0.00  0.00    +0.015 C 
ATOM     12  C   UNL     1      -5.606  18.086  70.421  0.00  0.00    +0.004 C 
ATOM     13  C   UNL     1      -3.839  18.634  68.852  0.00  0.00    +0.006 C 
ATOM     14  C   UNL     1      -2.869  19.474  69.607  0.00  0.00    +0.034 C 
ATOM     15  C   UNL     1      -3.314  21.014  69.215  0.00  0.00    +0.156 C 
ATOM     16  O   UNL     1      -2.354  21.604  70.234  0.00  0.00    -0.223 OA
ATOM     17  C   UNL     1      -4.560  20.977  70.302  0.00  0.00    +0.055 C 
ATOM     18  C   UNL     1      -6.011  18.337  67.890  0.00  0.00    +0.004 C 
ATOM     19  C   UNL     1      -6.638  17.011  68.577  0.00  0.00    +0.001 C 
ATOM     20  C   UNL     1      -7.903  16.614  68.041  0.00  0.00    +0.004 C 
ENDROOT
BRANCH   3  21
ATOM     21  C   UNL     1     -10.403  15.860  66.305  0.00  0.00    +0.015 A 
ATOM     22  C   UNL     1     -11.160  15.327  67.315  0.00  0.00    +0.099 A 
ATOM     23  N   UNL     1     -12.027  14.305  67.153  0.00  0.00    -0.242 NA
ATOM     24  C   UNL     1     -11.987  13.679  65.956  0.00  0.00    +0.099 A 
ATOM     25  C   UNL     1     -11.444  14.303  64.840  0.00  0.00    +0.021 A 
ATOM     26  C   UNL     1     -10.791  15.517  65.016  0.00  0.00    +0.003 A 
ENDBRANCH   3  21
TORSDOF 1
ENDMDL
MODEL 5
REMARK VINA RESULT:      -7.1      4.952      6.424
REMARK  Name = 
REMARK  1 active torsions:
REMARK  status: ('A' for Active; 'I' for Inactive)
REMARK    1  A    between atoms: C_20  and  C_21
REMARK                            x       y       z     vdW  Elec       q    Type
REMARK                         _______ _______ _______ _____ _____    ______ ____
ROOT
ATOM      1  C   UNL     1      -9.693  14.684  69.089  0.00  0.00    +0.004 C 
ATOM      2  C   UNL     1     -11.077  14.144  69.180  0.00  0.00    +0.019 C 
ATOM      3  C   UNL     1     -11.965  15.285  69.340  0.00  0.00    -0.026 C 
ATOM      4  C   UNL     1     -11.601  16.078  68.327  0.00  0.00    -0.030 C 
ATOM      5  C   UNL     1     -10.972  15.277  67.224  0.00  0.00    +0.026 C 
ATOM      6  C   UNL     1     -11.588  13.846  67.670  0.00  0.00    +0.008 C 
ATOM      7  C   UNL     1     -10.203  12.925  67.394  0.00  0.00    +0.005 C 
ATOM      8  C   UNL     1     -10.449  12.875  65.810  0.00  0.00    +0.025 C 
ATOM      9  C   UNL     1      -9.466  11.798  65.448  0.00  0.00    -0.035 C 
ATOM     10  C   UNL     1      -9.006  10.959  66.387  0.00  0.00    -0.047 C 
ATOM     11  C   UNL     1      -9.863  10.501  67.486  0.00  0.00    +0.015 C 
ATOM     12  C   UNL     1      -9.134  10.232  68.718  0.00  0.00    +0.004 C 
ATOM     13  C   UNL     1     -10.641   9.248  67.093  0.00  0.00    +0.006 C 
ATOM     14  C   UNL     1      -9.834   8.248  66.341  0.00  0.00    +0.034 C 
ATOM     15  C   UNL     1      -9.365   9.076  64.991  0.00  0.00    +0.156 C 
ATOM     16  O   UNL     1      -8.442   7.948  64.560  0.00  0.00    -0.223 OA
ATOM     17  C   UNL     1      -8.160   9.840  65.826  0.00  0.00    +0.055 C 
ATOM     18  C   UNL     1     -11.101  11.524  67.673  0.00  0.00    +0.004 C 
ATOM     19  C   UNL     1     -10.970  11.621  69.284  0.00  0.00    +0.001 C 
ATOM     20  C   UNL     1     -11.319  12.898  69.826  0.00  0.00    +0.004 C 
ENDROOT
BRANCH   3  21
ATOM     21  C   UNL     1     -12.577  15.660  70.614  0.00  0.00    +0.015 A 
ATOM     22  C   UNL     1     -13.793  15.131  70.960  0.00  0.00    +0.099 A 
ATOM     23  N   UNL     1     -14.287  15.126  72.216  0.00  0.00    -0.242 NA
ATOM     24  C   UNL     1     -13.600  15.853  73.125  0.00  0.00    +0.099 A 
ATOM     25  C   UNL     1     -12.271  16.194  72.911  0.00  0.00    +0.021 A 
ATOM     26  C   UNL     1     -11.711  15.919  71.669  0.00  0.00    +0.003 A 
ENDBRANCH   3  21
TORSDOF 1
ENDMDL
MODEL 6
REMARK VINA RESULT:      -7.1      3.830      7.572
REMARK  Name = 
REMARK  1 active torsions:
REMARK  status: ('A' for Active; 'I' for Inactive)
REMARK    1  A    between atoms: C_20  and  C_21
REMARK                            x       y       z     vdW  Elec       q    Type
REMARK                         _______ _______ _______ _____ _____    ______ ____
ROOT
ATOM      1  C   UNL     1      -9.235  15.069  68.605  0.00  0.00    +0.004 C 
ATOM      2  C   UNL     1      -9.944  15.569  67.396  0.00  0.00    +0.019 C 
ATOM      3  C   UNL     1     -11.314  15.085  67.481  0.00  0.00    -0.026 C 
ATOM      4  C   UNL     1     -11.682  15.474  68.706  0.00  0.00    -0.030 C 
ATOM      5  C   UNL     1     -10.866  16.650  69.159  0.00  0.00    +0.026 C 
ATOM      6  C   UNL     1     -10.377  17.106  67.683  0.00  0.00    +0.008 C 
ATOM      7  C   UNL     1      -8.782  17.468  68.091  0.00  0.00    +0.005 C 
ATOM      8  C   UNL     1      -9.176  18.886  68.726  0.00  0.00    +0.025 C 
ATOM      9  C   UNL     1      -7.805  19.488  68.842  0.00  0.00    -0.035 C 
ATOM     10  C   UNL     1      -6.787  18.996  68.121  0.00  0.00    -0.047 C 
ATOM     11  C   UNL     1      -6.992  18.485  66.761  0.00  0.00    +0.015 C 
ATOM     12  C   UNL     1      -6.081  17.407  66.402  0.00  0.00    +0.004 C 
ATOM     13  C   UNL     1      -6.865  19.601  65.728  0.00  0.00    +0.006 C 
ATOM     14  C   UNL     1      -5.735  20.535  65.987  0.00  0.00    +0.034 C 
ATOM     15  C   UNL     1      -6.095  21.168  67.468  0.00  0.00    +0.156 C 
ATOM     16  O   UNL     1      -4.749  21.866  67.552  0.00  0.00    -0.223 OA
ATOM     17  C   UNL     1      -5.524  19.817  68.231  0.00  0.00    +0.055 C 
ATOM     18  C   UNL     1      -8.553  18.115  66.550  0.00  0.00    +0.004 C 
ATOM     19  C   UNL     1      -8.271  16.678  65.861  0.00  0.00    +0.001 C 
ATOM     20  C   UNL     1      -9.255  15.682  66.156  0.00  0.00    +0.004 C 
ENDROOT
BRANCH   3  21
ATOM     21  C   UNL     1     -11.826  13.968  66.689  0.00  0.00    +0.015 A 
ATOM     22  C   UNL     1     -12.572  14.221  65.568  0.00  0.00    +0.099 A 
ATOM     23  N   UNL     1     -12.804  13.318  64.592  0.00  0.00    -0.242 NA
ATOM     24  C   UNL     1     -12.416  12.050  64.854  0.00  0.00    +0.099 A 
ATOM     25  C   UNL     1     -11.462  11.782  65.827  0.00  0.00    +0.021 A 
ATOM     26  C   UNL     1     -11.037  12.825  66.641  0.00  0.00    +0.003 A 
ENDBRANCH   3  21
TORSDOF 1
ENDMDL
MODEL 7
REMARK VINA RESULT:      -7.0      2.097      3.118
REMARK  Name = 
REMARK  1 active torsions:
REMARK  status: ('A' for Active; 'I' for Inactive)
REMARK    1  A    between atoms: C_20  and  C_21
REMARK                            x       y       z     vdW  Elec       q    Type
REMARK                         _______ _______ _______ _____ _____    ______ ____
ROOT
ATOM      1  C   UNL     1     -10.003  18.791  66.111  0.00  0.00    +0.004 C 
ATOM      2  C   UNL     1      -8.728  18.428  66.787  0.00  0.00    +0.019 C 
ATOM      3  C   UNL     1      -8.142  19.668  67.276  0.00  0.00    -0.026 C 
ATOM      4  C   UNL     1      -9.152  20.214  67.960  0.00  0.00    -0.030 C 
ATOM      5  C   UNL     1     -10.117  19.158  68.418  0.00  0.00    +0.026 C 
ATOM      6  C   UNL     1      -9.093  17.910  68.280  0.00  0.00    +0.008 C 
ATOM      7  C   UNL     1     -10.188  16.812  67.619  0.00  0.00    +0.005 C 
ATOM      8  C   UNL     1     -10.858  16.492  69.040  0.00  0.00    +0.025 C 
ATOM      9  C   UNL     1     -11.645  15.269  68.666  0.00  0.00    -0.035 C 
ATOM     10  C   UNL     1     -11.333  14.575  67.562  0.00  0.00    -0.047 C 
ATOM     11  C   UNL     1      -9.941  14.425  67.123  0.00  0.00    +0.015 C 
ATOM     12  C   UNL     1      -9.796  14.316  65.678  0.00  0.00    +0.004 C 
ATOM     13  C   UNL     1      -9.286  13.211  67.776  0.00  0.00    +0.006 C 
ATOM     14  C   UNL     1     -10.162  12.008  67.827  0.00  0.00    +0.034 C 
ATOM     15  C   UNL     1     -11.451  12.514  68.727  0.00  0.00    +0.156 C 
ATOM     16  O   UNL     1     -12.217  11.234  68.440  0.00  0.00    -0.223 OA
ATOM     17  C   UNL     1     -12.111  13.288  67.424  0.00  0.00    +0.055 C 
ATOM     18  C   UNL     1      -9.035  15.591  67.782  0.00  0.00    +0.004 C 
ATOM     19  C   UNL     1      -8.267  15.973  66.409  0.00  0.00    +0.001 C 
ATOM     20  C   UNL     1      -7.932  17.358  66.288  0.00  0.00    +0.004 C 
ENDROOT
BRANCH   3  21
ATOM     21  C   UNL     1      -7.013  20.337  66.631  0.00  0.00    +0.015 A 
ATOM     22  C   UNL     1      -5.884  20.608  67.358  0.00  0.00    +0.099 A 
ATOM     23  N   UNL     1      -4.684  20.900  66.814  0.00  0.00    -0.242 NA
ATOM     24  C   UNL     1      -4.674  21.105  65.478  0.00  0.00    +0.099 A 
ATOM     25  C   UNL     1      -5.694  20.616  64.672  0.00  0.00    +0.021 A 
ATOM     26  C   UNL     1      -6.809  20.058  65.285  0.00  0.00    +0.003 A 
ENDBRANCH   3  21
TORSDOF 1
ENDMDL
MODEL 8
REMARK VINA RESULT:      -7.0      3.955      7.293
REMARK  Name = 
REMARK  1 active torsions:
REMARK  status: ('A' for Active; 'I' for Inactive)
REMARK    1  A    between atoms: C_20  and  C_21
REMARK                            x       y       z     vdW  Elec       q    Type
REMARK                         _______ _______ _______ _____ _____    ______ ____
ROOT
ATOM      1  C   UNL     1     -11.519  14.755  67.133  0.00  0.00    +0.004 C 
ATOM      2  C   UNL     1     -10.916  14.679  68.492  0.00  0.00    +0.019 C 
ATOM      3  C   UNL     1     -11.031  13.295  68.928  0.00  0.00    -0.026 C 
ATOM      4  C   UNL     1     -10.500  12.624  67.901  0.00  0.00    -0.030 C 
ATOM      5  C   UNL     1      -9.549  13.494  67.131  0.00  0.00    +0.026 C 
ATOM      6  C   UNL     1      -9.307  14.579  68.310  0.00  0.00    +0.008 C 
ATOM      7  C   UNL     1      -9.342  15.957  67.339  0.00  0.00    +0.005 C 
ATOM      8  C   UNL     1      -7.840  15.737  66.824  0.00  0.00    +0.025 C 
ATOM      9  C   UNL     1      -7.601  17.080  66.195  0.00  0.00    -0.035 C 
ATOM     10  C   UNL     1      -8.371  18.127  66.524  0.00  0.00    -0.047 C 
ATOM     11  C   UNL     1      -8.882  18.301  67.888  0.00  0.00    +0.015 C 
ATOM     12  C   UNL     1     -10.172  18.973  67.945  0.00  0.00    +0.004 C 
ATOM     13  C   UNL     1      -7.888  19.070  68.754  0.00  0.00    +0.006 C 
ATOM     14  C   UNL     1      -7.260  20.230  68.065  0.00  0.00    +0.034 C 
ATOM     15  C   UNL     1      -6.482  19.536  66.784  0.00  0.00    +0.156 C 
ATOM     16  O   UNL     1      -6.146  20.893  66.189  0.00  0.00    -0.223 OA
ATOM     17  C   UNL     1      -7.894  19.431  65.929  0.00  0.00    +0.055 C 
ATOM     18  C   UNL     1      -8.853  16.881  68.663  0.00  0.00    +0.004 C 
ATOM     19  C   UNL     1     -10.348  17.015  69.270  0.00  0.00    +0.001 C 
ATOM     20  C   UNL     1     -11.045  15.772  69.395  0.00  0.00    +0.004 C 
ENDROOT
BRANCH   3  21
ATOM     21  C   UNL     1     -12.020  12.835  69.901  0.00  0.00    +0.015 A 
ATOM     22  C   UNL     1     -12.068  11.508  70.239  0.00  0.00    +0.099 A 
ATOM     23  N   UNL     1     -12.682  11.029  71.341  0.00  0.00    -0.242 NA
ATOM     24  C   UNL     1     -13.436  11.913  72.031  0.00  0.00    +0.099 A 
ATOM     25  C   UNL     1     -13.237  13.281  71.895  0.00  0.00    +0.021 A 
ATOM     26  C   UNL     1     -12.363  13.726  70.911  0.00  0.00    +0.003 A 
ENDBRANCH   3  21
TORSDOF 1
ENDMDL
MODEL 9
REMARK VINA RESULT:      -6.9      5.290      7.044
REMARK  Name = 
REMARK  1 active torsions:
REMARK  status: ('A' for Active; 'I' for Inactive)
REMARK    1  A    between atoms: C_20  and  C_21
REMARK                            x       y       z     vdW  Elec       q    Type
REMARK                         _______ _______ _______ _____ _____    ______ ____
ROOT
ATOM      1  C   UNL     1      -9.759  14.083  66.118  0.00  0.00    +0.004 C 
ATOM      2  C   UNL     1     -10.425  13.078  66.990  0.00  0.00    +0.019 C 
ATOM      3  C   UNL     1     -11.593  13.728  67.567  0.00  0.00    -0.026 C 
ATOM      4  C   UNL     1     -12.210  14.221  66.488  0.00  0.00    -0.030 C 
ATOM      5  C   UNL     1     -11.838  13.443  65.259  0.00  0.00    +0.026 C 
ATOM      6  C   UNL     1     -11.322  12.119  66.037  0.00  0.00    +0.008 C 
ATOM      7  C   UNL     1      -9.967  11.825  65.077  0.00  0.00    +0.005 C 
ATOM      8  C   UNL     1     -10.836  11.162  63.904  0.00  0.00    +0.025 C 
ATOM      9  C   UNL     1      -9.727  10.541  63.104  0.00  0.00    -0.035 C 
ATOM     10  C   UNL     1      -8.527  10.327  63.663  0.00  0.00    -0.047 C 
ATOM     11  C   UNL     1      -8.401   9.941  65.073  0.00  0.00    +0.015 C 
ATOM     12  C   UNL     1      -7.176  10.420  65.700  0.00  0.00    +0.004 C 
ATOM     13  C   UNL     1      -8.477   8.425  65.238  0.00  0.00    +0.006 C 
ATOM     14  C   UNL     1      -7.711   7.668  64.209  0.00  0.00    +0.034 C 
ATOM     15  C   UNL     1      -8.425   8.124  62.792  0.00  0.00    +0.156 C 
ATOM     16  O   UNL     1      -7.363   7.412  61.971  0.00  0.00    -0.223 OA
ATOM     17  C   UNL     1      -7.584   9.548  62.777  0.00  0.00    +0.055 C 
ATOM     18  C   UNL     1      -9.745  10.354  65.872  0.00  0.00    +0.004 C 
ATOM     19  C   UNL     1      -8.970  11.017  67.130  0.00  0.00    +0.001 C 
ATOM     20  C   UNL     1      -9.648  12.131  67.716  0.00  0.00    +0.004 C 
ENDROOT
BRANCH   3  21
ATOM     21  C   UNL     1     -11.651  14.207  68.947  0.00  0.00    +0.015 A 
ATOM     22  C   UNL     1     -11.780  15.549  69.190  0.00  0.00    +0.099 A 
ATOM     23  N   UNL     1     -12.178  16.070  70.370  0.00  0.00    -0.242 NA
ATOM     24  C   UNL     1     -12.272  15.201  71.400  0.00  0.00    +0.099 A 
ATOM     25  C   UNL     1     -12.396  13.836  71.174  0.00  0.00    +0.021 A 
ATOM     26  C   UNL     1     -12.254  13.367  69.874  0.00  0.00    +0.003 A 
ENDBRANCH   3  21
TORSDOF 1
ENDMDL
