MODEL 1
REMARK VINA RESULT:      -4.0      0.000      0.000
REMARK  Name = 
REMARK  2 active torsions:
REMARK  status: ('A' for Active; 'I' for Inactive)
REMARK    1  A    between atoms: C_2  and  CA_5
REMARK    2  A    between atoms: CA_5  and  C_7
REMARK                            x       y       z     vdW  Elec       q    Type
REMARK                         _______ _______ _______ _____ _____    ______ ____
ROOT
ATOM      1  CA  UNL     1      -5.698  20.018  71.543  0.00  0.00    +0.204 C 
ATOM      2  N   UNL     1      -5.208  18.583  71.980  0.00  0.00    -0.120 NA
ENDROOT
BRANCH   1   4
ATOM      3  C   UNL     1      -4.918  21.043  69.471  0.00  0.00    +0.014 C 
ATOM      4  C   UNL     1      -5.320  19.751  69.967  0.00  0.00    +0.076 C 
ATOM      5  S   UNL     1      -4.196  18.425  69.780  0.00  0.00    -0.082 S 
ATOM      6  C   UNL     1      -6.627  19.416  69.282  0.00  0.00    +0.014 C 
ENDBRANCH   1   4
BRANCH   1   7
ATOM      7  C   UNL     1      -4.297  20.745  71.859  0.00  0.00    +0.383 C 
ATOM      8  OXT UNL     1      -4.452  22.088  72.225  0.00  0.00    -0.244 OA
ATOM      9  O   UNL     1      -3.396  20.168  72.438  0.00  0.00    -0.244 OA
ENDBRANCH   1   7
TORSDOF 2
ENDMDL
MODEL 2
REMARK VINA RESULT:      -3.8      9.700     10.342
REMARK  Name = 
REMARK  2 active torsions:
REMARK  status: ('A' for Active; 'I' for Inactive)
REMARK    1  A    between atoms: C_2  and  CA_5
REMARK    2  A    between atoms: CA_5  and  C_7
REMARK                            x       y       z     vdW  Elec       q    Type
REMARK                         _______ _______ _______ _____ _____    ______ ____
ROOT
ATOM      1  CA  UNL     1     -10.207  14.573  64.908  0.00  0.00    +0.204 C 
ATOM      2  N   UNL     1     -10.702  13.203  64.301  0.00  0.00    -0.120 NA
ENDROOT
BRANCH   1   4
ATOM      3  C   UNL     1     -11.041  15.387  67.052  0.00  0.00    +0.014 C 
ATOM      4  C   UNL     1     -10.649  14.146  66.431  0.00  0.00    +0.076 C 
ATOM      5  S   UNL     1     -11.809  12.838  66.432  0.00  0.00    -0.082 S 
ATOM      6  C   UNL     1      -9.377  13.705  67.120  0.00  0.00    +0.014 C 
ENDBRANCH   1   4
BRANCH   1   7
ATOM      7  C   UNL     1     -11.583  15.358  64.621  0.00  0.00    +0.383 C 
ATOM      8  OXT UNL     1     -11.380  16.686  64.224  0.00  0.00    -0.244 OA
ATOM      9  O   UNL     1     -12.526  14.812  64.081  0.00  0.00    -0.244 OA
ENDBRANCH   1   7
TORSDOF 2
ENDMDL
MODEL 3
REMARK VINA RESULT:      -3.7     10.856     11.491
REMARK  Name = 
REMARK  2 active torsions:
REMARK  status: ('A' for Active; 'I' for Inactive)
REMARK    1  A    between atoms: C_2  and  CA_5
REMARK    2  A    between atoms: CA_5  and  C_7
REMARK                            x       y       z     vdW  Elec       q    Type
REMARK                         _______ _______ _______ _____ _____    ______ ____
ROOT
ATOM      1  CA  UNL     1     -12.263  12.831  65.423  0.00  0.00    +0.204 C 
ATOM      2  N   UNL     1     -13.387  13.938  65.473  0.00  0.00    -0.120 NA
ENDROOT
BRANCH   1   4
ATOM      3  C   UNL     1     -10.029  12.962  66.395  0.00  0.00    +0.014 C 
ATOM      4  C   UNL     1     -11.144  13.826  66.099  0.00  0.00    +0.076 C 
ATOM      5  S   UNL     1     -10.839  15.233  65.107  0.00  0.00    -0.082 S 
ATOM      6  C   UNL     1     -11.723  14.251  67.430  0.00  0.00    +0.014 C 
ENDBRANCH   1   4
BRANCH   1   7
ATOM      7  C   UNL     1     -11.801  13.168  63.919  0.00  0.00    +0.383 C 
ATOM      8  OXT UNL     1     -10.933  12.206  63.387  0.00  0.00    -0.244 OA
ATOM      9  O   UNL     1     -12.571  13.650  63.109  0.00  0.00    -0.244 OA
ENDBRANCH   1   7
TORSDOF 2
ENDMDL
MODEL 4
REMARK VINA RESULT:      -3.7      9.591     10.188
REMARK  Name = 
REMARK  2 active torsions:
REMARK  status: ('A' for Active; 'I' for Inactive)
REMARK    1  A    between atoms: C_2  and  CA_5
REMARK    2  A    between atoms: CA_5  and  C_7
REMARK                            x       y       z     vdW  Elec       q    Type
REMARK                         _______ _______ _______ _____ _____    ______ ____
ROOT
ATOM      1  CA  UNL     1     -10.322  14.583  64.988  0.00  0.00    +0.204 C 
ATOM      2  N   UNL     1     -10.991  13.167  64.789  0.00  0.00    -0.120 NA
ENDROOT
BRANCH   1   4
ATOM      3  C   UNL     1      -9.847  13.540  67.141  0.00  0.00    +0.014 C 
ATOM      4  C   UNL     1     -10.656  14.601  66.595  0.00  0.00    +0.076 C 
ATOM      5  S   UNL     1     -10.470  16.198  67.283  0.00  0.00    -0.082 S 
ATOM      6  C   UNL     1     -12.095  14.152  66.722  0.00  0.00    +0.014 C 
ENDBRANCH   1   4
BRANCH   1   7
ATOM      7  C   UNL     1     -11.643  15.418  64.602  0.00  0.00    +0.383 C 
ATOM      8  OXT UNL     1     -11.360  16.732  64.207  0.00  0.00    -0.244 OA
ATOM      9  O   UNL     1     -12.570  14.903  64.005  0.00  0.00    -0.244 OA
ENDBRANCH   1   7
TORSDOF 2
ENDMDL
MODEL 5
REMARK VINA RESULT:      -3.7     10.165     10.867
REMARK  Name = 
REMARK  2 active torsions:
REMARK  status: ('A' for Active; 'I' for Inactive)
REMARK    1  A    between atoms: C_2  and  CA_5
REMARK    2  A    between atoms: CA_5  and  C_7
REMARK                            x       y       z     vdW  Elec       q    Type
REMARK                         _______ _______ _______ _____ _____    ______ ____
ROOT
ATOM      1  CA  UNL     1     -11.211  13.043  65.366  0.00  0.00    +0.204 C 
ATOM      2  N   UNL     1     -12.011  12.413  66.572  0.00  0.00    -0.120 NA
ENDROOT
BRANCH   1   4
ATOM      3  C   UNL     1     -10.446  15.359  65.383  0.00  0.00    +0.014 C 
ATOM      4  C   UNL     1     -10.610  14.256  66.295  0.00  0.00    +0.076 C 
ATOM      5  S   UNL     1     -11.579  14.524  67.725  0.00  0.00    -0.082 S 
ATOM      6  C   UNL     1      -9.218  13.817  66.694  0.00  0.00    +0.014 C 
ENDBRANCH   1   4
BRANCH   1   7
ATOM      7  C   UNL     1     -12.443  13.929  64.829  0.00  0.00    +0.383 C 
ATOM      8  OXT UNL     1     -12.549  13.924  63.432  0.00  0.00    -0.244 OA
ATOM      9  O   UNL     1     -13.509  13.957  65.413  0.00  0.00    -0.244 OA
ENDBRANCH   1   7
TORSDOF 2
ENDMDL
MODEL 6
REMARK VINA RESULT:      -3.6     10.581     11.446
REMARK  Name = 
REMARK  2 active torsions:
REMARK  status: ('A' for Active; 'I' for Inactive)
REMARK    1  A    between atoms: C_2  and  CA_5
REMARK    2  A    between atoms: CA_5  and  C_7
REMARK                            x       y       z     vdW  Elec       q    Type
REMARK                         _______ _______ _______ _____ _____    ______ ____
ROOT
ATOM      1  CA  UNL     1     -10.757  13.077  64.762  0.00  0.00    +0.204 C 
ATOM      2  N   UNL     1     -10.921  11.510  64.672  0.00  0.00    -0.120 NA
ENDROOT
BRANCH   1   4
ATOM      3  C   UNL     1      -9.325  13.088  66.738  0.00  0.00    +0.014 C 
ATOM      4  C   UNL     1     -10.727  13.057  66.404  0.00  0.00    +0.076 C 
ATOM      5  S   UNL     1     -11.751  14.296  67.091  0.00  0.00    -0.082 S 
ATOM      6  C   UNL     1     -11.233  11.690  66.808  0.00  0.00    +0.014 C 
ENDBRANCH   1   4
BRANCH   1   7
ATOM      7  C   UNL     1     -12.335  13.388  64.695  0.00  0.00    +0.383 C 
ATOM      8  OXT UNL     1     -12.631  14.542  63.959  0.00  0.00    -0.244 OA
ATOM      9  O   UNL     1     -13.154  12.496  64.582  0.00  0.00    -0.244 OA
ENDBRANCH   1   7
TORSDOF 2
ENDMDL
MODEL 7
REMARK VINA RESULT:      -3.5     10.119     10.688
REMARK  Name = 
REMARK  2 active torsions:
REMARK  status: ('A' for Active; 'I' for Inactive)
REMARK    1  A    between atoms: C_2  and  CA_5
REMARK    2  A    between atoms: CA_5  and  C_7
REMARK                            x       y       z     vdW  Elec       q    Type
REMARK                         _______ _______ _______ _____ _____    ______ ____
ROOT
ATOM      1  CA  UNL     1     -12.380  13.927  66.149  0.00  0.00    +0.204 C 
ATOM      2  N   UNL     1     -12.806  12.859  65.067  0.00  0.00    -0.120 NA
ENDROOT
BRANCH   1   4
ATOM      3  C   UNL     1     -10.997  15.451  64.839  0.00  0.00    +0.014 C 
ATOM      4  C   UNL     1     -10.907  14.153  65.458  0.00  0.00    +0.076 C 
ATOM      5  S   UNL     1      -9.605  13.885  66.594  0.00  0.00    -0.082 S 
ATOM      6  C   UNL     1     -10.821  13.145  64.333  0.00  0.00    +0.014 C 
ENDBRANCH   1   4
BRANCH   1   7
ATOM      7  C   UNL     1     -11.830  12.844  67.205  0.00  0.00    +0.383 C 
ATOM      8  OXT UNL     1     -11.999  13.247  68.536  0.00  0.00    -0.244 OA
ATOM      9  O   UNL     1     -11.968  11.649  67.022  0.00  0.00    -0.244 OA
ENDBRANCH   1   7
TORSDOF 2
ENDMDL
MODEL 8
REMARK VINA RESULT:      -3.5      9.642     10.556
REMARK  Name = 
REMARK  2 active torsions:
REMARK  status: ('A' for Active; 'I' for Inactive)
REMARK    1  A    between atoms: C_2  and  CA_5
REMARK    2  A    between atoms: CA_5  and  C_7
REMARK                            x       y       z     vdW  Elec       q    Type
REMARK                         _______ _______ _______ _____ _____    ______ ____
ROOT
ATOM      1  CA  UNL     1     -11.960  14.278  66.141  0.00  0.00    +0.204 C 
ATOM      2  N   UNL     1     -10.958  15.107  67.034  0.00  0.00    -0.120 NA
ENDROOT
BRANCH   1   4
ATOM      3  C   UNL     1     -11.353  12.005  66.787  0.00  0.00    +0.014 C 
ATOM      4  C   UNL     1     -10.881  13.059  65.924  0.00  0.00    +0.076 C 
ATOM      5  S   UNL     1     -10.654  12.681  64.233  0.00  0.00    -0.082 S 
ATOM      6  C   UNL     1      -9.581  13.551  66.520  0.00  0.00    +0.014 C 
ENDBRANCH   1   4
BRANCH   1   7
ATOM      7  C   UNL     1     -11.560  15.011  64.765  0.00  0.00    +0.383 C 
ATOM      8  OXT UNL     1     -12.629  15.098  63.863  0.00  0.00    -0.244 OA
ATOM      9  O   UNL     1     -10.811  15.969  64.749  0.00  0.00    -0.244 OA
ENDBRANCH   1   7
TORSDOF 2
ENDMDL
MODEL 9
REMARK VINA RESULT:      -3.4      5.865      6.754
REMARK  Name = 
REMARK  2 active torsions:
REMARK  status: ('A' for Active; 'I' for Inactive)
REMARK    1  A    between atoms: C_2  and  CA_5
REMARK    2  A    between atoms: CA_5  and  C_7
REMARK                            x       y       z     vdW  Elec       q    Type
REMARK                         _______ _______ _______ _____ _____    ______ ____
ROOT
ATOM      1  CA  UNL     1      -8.523  19.008  66.440  0.00  0.00    +0.204 C 
ATOM      2  N   UNL     1      -8.058  17.566  65.997  0.00  0.00    -0.120 NA
ENDROOT
BRANCH   1   4
ATOM      3  C   UNL     1      -9.770  19.341  68.510  0.00  0.00    +0.014 C 
ATOM      4  C   UNL     1      -8.662  18.564  68.015  0.00  0.00    +0.076 C 
ATOM      5  S   UNL     1      -8.744  16.827  68.199  0.00  0.00    -0.082 S 
ATOM      6  C   UNL     1      -7.424  19.095  68.703  0.00  0.00    +0.014 C 
ENDBRANCH   1   4
BRANCH   1   7
ATOM      7  C   UNL     1     -10.081  18.755  66.127  0.00  0.00    +0.383 C 
ATOM      8  OXT UNL     1     -10.745  19.913  65.700  0.00  0.00    -0.244 OA
ATOM      9  O   UNL     1     -10.466  17.732  65.594  0.00  0.00    -0.244 OA
ENDBRANCH   1   7
TORSDOF 2
ENDMDL
