MODEL 1
REMARK VINA RESULT:      -9.2      0.000      0.000
REMARK  Name = 
REMARK  7 active torsions:
REMARK  status: ('A' for Active; 'I' for Inactive)
REMARK    1  A    between atoms: C_5  and  C_6
REMARK    2  A    between atoms: N_8  and  C_9
REMARK    3  A    between atoms: C_19  and  C_20
REMARK    4  A    between atoms: N_22  and  S_23
REMARK    5  A    between atoms: S_23  and  C_26
REMARK    6  A    between atoms: C_34  and  O_35
REMARK    7  A    between atoms: O_35  and  C_36
REMARK                            x       y       z     vdW  Elec       q    Type
REMARK                         _______ _______ _______ _____ _____    ______ ____
ROOT
ATOM      1  C   UNL     1      -6.803  19.377  67.311  0.00  0.00    +0.172 C 
ATOM      2  C   UNL     1      -8.402  19.381  66.981  0.00  0.00    +0.246 C 
ATOM      3  O   UNL     1      -8.937  20.504  67.045  0.00  0.00    -0.273 OA
ATOM      4  N   UNL     1      -9.147  18.243  67.282  0.00  0.00    -0.268 N 
ATOM      5  C   UNL     1      -8.416  17.029  68.013  0.00  0.00    +0.157 C 
ATOM      6  C   UNL     1      -9.573  15.953  67.516  0.00  0.00    +0.075 C 
ATOM      7  C   UNL     1     -10.931  16.833  67.896  0.00  0.00    +0.189 C 
ATOM      8  C   UNL     1      -7.445  16.690  66.741  0.00  0.00    +0.260 C 
ATOM      9  O   UNL     1      -7.978  16.786  65.622  0.00  0.00    -0.272 OA
ATOM     10  N   UNL     1      -6.709  15.467  66.925  0.00  0.00    -0.198 NA
ATOM     11  C   UNL     1      -6.504  14.762  68.066  0.00  0.00    +0.154 C 
ATOM     12  C   UNL     1      -5.009  15.158  68.741  0.00  0.00    +0.051 C 
ATOM     13  C   UNL     1      -4.697  16.402  67.666  0.00  0.00    -0.029 C 
ATOM     14  C   UNL     1      -3.466  16.800  68.025  0.00  0.00    -0.031 C 
ATOM     15  C   UNL     1      -3.552  17.600  69.293  0.00  0.00    +0.026 C 
ATOM     16  C   UNL     1      -4.178  18.901  68.797  0.00  0.00    +0.005 C 
ATOM     17  C   UNL     1      -4.957  19.588  69.880  0.00  0.00    +0.000 C 
ATOM     18  C   UNL     1      -6.412  19.641  69.686  0.00  0.00    +0.002 C 
ATOM     19  C   UNL     1      -6.436  15.816  69.351  0.00  0.00    +0.036 C 
ATOM     20  C   UNL     1     -10.093  18.174  68.405  0.00  0.00    +0.137 C 
ATOM     21  C   UNL     1      -6.929  20.472  68.570  0.00  0.00    +0.031 C 
ENDROOT
BRANCH   1  23
ATOM     22  C   UNL     1      -6.071  20.074  64.942  0.00  0.00    +0.284 C 
ATOM     23  N   UNL     1      -6.511  20.447  66.170  0.00  0.00    -0.193 NA
ATOM     24  O   UNL     1      -5.759  18.899  64.692  0.00  0.00    -0.267 OA
BRANCH  22  29
ATOM     25  C   UNL     1      -3.326  22.732  60.967  0.00  0.00    +0.054 C 
ATOM     26  C   UNL     1      -3.993  21.977  61.939  0.00  0.00    +0.079 A 
ATOM     27  N   UNL     1      -3.416  21.839  63.150  0.00  0.00    -0.245 NA
ATOM     28  C   UNL     1      -4.053  21.265  64.201  0.00  0.00    +0.122 A 
ATOM     29  C   UNL     1      -5.429  21.097  64.104  0.00  0.00    +0.155 A 
ATOM     30  N   UNL     1      -6.065  21.476  62.968  0.00  0.00    -0.236 NA
ATOM     31  C   UNL     1      -5.355  21.774  61.851  0.00  0.00    +0.114 A 
ENDBRANCH  22  29
ENDBRANCH   1  23
BRANCH  11  32
ATOM     32  C   UNL     1      -6.514  13.362  68.366  0.00  0.00    +0.280 C 
ATOM     33  N   UNL     1      -7.009  12.547  67.308  0.00  0.00    -0.062 NA
ATOM     34  O   UNL     1      -5.946  12.726  69.264  0.00  0.00    -0.270 OA
BRANCH  33  35
ATOM     35  S   UNL     1      -7.103  10.888  67.154  0.00  0.00    +0.074 S 
ATOM     36  O   UNL     1      -8.277  10.398  66.332  0.00  0.00    -0.153 OA
ATOM     37  O   UNL     1      -5.920  10.505  66.281  0.00  0.00    -0.153 OA
BRANCH  35  38
ATOM     38  C   UNL     1      -6.908   9.956  68.635  0.00  0.00    +0.151 C 
ATOM     39  C   UNL     1      -8.065  10.131  69.660  0.00  0.00    +0.027 C 
ATOM     40  C   UNL     1      -7.928   8.876  68.892  0.00  0.00    +0.027 C 
ENDBRANCH  35  38
ENDBRANCH  33  35
ENDBRANCH  11  32
BRANCH   7  41
ATOM     41  O   UNL     1     -10.984  16.274  69.352  0.00  0.00    -0.462 OA
BRANCH  41  42
ATOM     42  C   UNL     1     -11.584  15.020  69.457  0.00  0.00    +0.225 A 
ATOM     43  C   UNL     1     -12.229  14.670  70.638  0.00  0.00    +0.053 A 
ATOM     44  C   UNL     1     -12.493  13.344  70.961  0.00  0.00    +0.006 A 
ATOM     45  C   UNL     1     -13.254  13.027  72.079  0.00  0.00    +0.000 A 
ATOM     46  C   UNL     1     -13.654  14.108  72.855  0.00  0.00    +0.000 A 
ATOM     47  C   UNL     1     -13.676  15.402  72.374  0.00  0.00    +0.000 A 
ATOM     48  C   UNL     1     -11.938  12.327  70.191  0.00  0.00    +0.018 A 
ATOM     49  C   UNL     1     -11.334  12.738  69.013  0.00  0.00    +0.084 A 
ATOM     50  C   UNL     1     -10.886  11.747  68.153  0.00  0.00    +0.019 A 
ATOM     51  C   UNL     1     -11.378  10.451  68.241  0.00  0.00    +0.002 A 
ATOM     52  C   UNL     1     -11.855  10.076  69.481  0.00  0.00    +0.000 A 
ATOM     53  C   UNL     1     -12.232  10.989  70.437  0.00  0.00    +0.001 A 
ATOM     54  C   UNL     1     -13.092  15.610  71.135  0.00  0.00    +0.005 A 
ATOM     55  N   UNL     1     -10.877  14.004  68.908  0.00  0.00    -0.212 NA
ENDBRANCH  41  42
ENDBRANCH   7  41
TORSDOF 7
ENDMDL
MODEL 2
REMARK VINA RESULT:      -8.7      1.951      2.663
REMARK  Name = 
REMARK  7 active torsions:
REMARK  status: ('A' for Active; 'I' for Inactive)
REMARK    1  A    between atoms: C_5  and  C_6
REMARK    2  A    between atoms: N_8  and  C_9
REMARK    3  A    between atoms: C_19  and  C_20
REMARK    4  A    between atoms: N_22  and  S_23
REMARK    5  A    between atoms: S_23  and  C_26
REMARK    6  A    between atoms: C_34  and  O_35
REMARK    7  A    between atoms: O_35  and  C_36
REMARK                            x       y       z     vdW  Elec       q    Type
REMARK                         _______ _______ _______ _____ _____    ______ ____
ROOT
ATOM      1  C   UNL     1      -5.153  19.991  66.930  0.00  0.00    +0.172 C 
ATOM      2  C   UNL     1      -6.387  19.518  65.970  0.00  0.00    +0.246 C 
ATOM      3  O   UNL     1      -7.066  20.454  65.508  0.00  0.00    -0.273 OA
ATOM      4  N   UNL     1      -6.987  18.286  66.217  0.00  0.00    -0.268 N 
ATOM      5  C   UNL     1      -6.495  17.441  67.476  0.00  0.00    +0.157 C 
ATOM      6  C   UNL     1      -7.089  16.031  66.840  0.00  0.00    +0.075 C 
ATOM      7  C   UNL     1      -8.590  16.567  66.370  0.00  0.00    +0.189 C 
ATOM      8  C   UNL     1      -5.000  17.176  66.867  0.00  0.00    +0.260 C 
ATOM      9  O   UNL     1      -4.954  16.948  65.646  0.00  0.00    -0.272 OA
ATOM     10  N   UNL     1      -4.246  16.237  67.656  0.00  0.00    -0.198 NA
ATOM     11  C   UNL     1      -4.487  15.801  68.919  0.00  0.00    +0.154 C 
ATOM     12  C   UNL     1      -3.572  16.682  70.029  0.00  0.00    +0.051 C 
ATOM     13  C   UNL     1      -3.002  17.778  68.901  0.00  0.00    -0.029 C 
ATOM     14  C   UNL     1      -2.167  18.540  69.625  0.00  0.00    -0.031 C 
ATOM     15  C   UNL     1      -2.969  19.479  70.482  0.00  0.00    +0.026 C 
ATOM     16  C   UNL     1      -3.494  20.471  69.448  0.00  0.00    +0.005 C 
ATOM     17  C   UNL     1      -4.790  21.089  69.882  0.00  0.00    +0.000 C 
ATOM     18  C   UNL     1      -5.971  20.721  69.089  0.00  0.00    +0.002 C 
ATOM     19  C   UNL     1      -5.205  17.025  69.788  0.00  0.00    +0.036 C 
ATOM     20  C   UNL     1      -8.323  18.145  66.813  0.00  0.00    +0.137 C 
ATOM     21  C   UNL     1      -6.033  21.198  67.684  0.00  0.00    +0.031 C 
ENDROOT
BRANCH   1  23
ATOM     22  C   UNL     1      -3.236  20.816  65.419  0.00  0.00    +0.284 C 
ATOM     23  N   UNL     1      -4.541  20.906  65.780  0.00  0.00    -0.193 NA
ATOM     24  O   UNL     1      -2.435  20.108  66.049  0.00  0.00    -0.267 OA
BRANCH  22  29
ATOM     25  C   UNL     1      -2.262  25.731  63.119  0.00  0.00    +0.054 C 
ATOM     26  C   UNL     1      -2.596  24.513  63.722  0.00  0.00    +0.079 A 
ATOM     27  N   UNL     1      -2.937  23.477  62.929  0.00  0.00    -0.245 NA
ATOM     28  C   UNL     1      -3.121  22.221  63.406  0.00  0.00    +0.122 A 
ATOM     29  C   UNL     1      -2.648  21.945  64.683  0.00  0.00    +0.155 A 
ATOM     30  N   UNL     1      -2.063  22.933  65.402  0.00  0.00    -0.236 NA
ATOM     31  C   UNL     1      -2.160  24.225  65.000  0.00  0.00    +0.114 A 
ENDBRANCH  22  29
ENDBRANCH   1  23
BRANCH  11  32
ATOM     32  C   UNL     1      -4.406  14.514  69.541  0.00  0.00    +0.280 C 
ATOM     33  N   UNL     1      -5.503  13.657  69.244  0.00  0.00    -0.062 NA
ATOM     34  O   UNL     1      -3.449  13.937  70.076  0.00  0.00    -0.270 OA
BRANCH  33  35
ATOM     35  S   UNL     1      -5.786  12.060  69.639  0.00  0.00    +0.074 S 
ATOM     36  O   UNL     1      -4.643  11.120  69.316  0.00  0.00    -0.153 OA
ATOM     37  O   UNL     1      -5.808  12.028  71.158  0.00  0.00    -0.153 OA
BRANCH  35  38
ATOM     38  C   UNL     1      -7.339  11.398  69.138  0.00  0.00    +0.151 C 
ATOM     39  C   UNL     1      -7.237  10.100  68.286  0.00  0.00    +0.027 C 
ATOM     40  C   UNL     1      -7.703  10.042  69.688  0.00  0.00    +0.027 C 
ENDBRANCH  35  38
ENDBRANCH  33  35
ENDBRANCH  11  32
BRANCH   7  41
ATOM     41  O   UNL     1      -9.227  16.251  67.759  0.00  0.00    -0.462 OA
BRANCH  41  42
ATOM     42  C   UNL     1     -10.029  15.111  67.771  0.00  0.00    +0.225 A 
ATOM     43  C   UNL     1     -10.793  14.826  68.897  0.00  0.00    +0.053 A 
ATOM     44  C   UNL     1     -11.290  13.550  69.138  0.00  0.00    +0.006 A 
ATOM     45  C   UNL     1     -12.158  13.320  70.197  0.00  0.00    +0.000 A 
ATOM     46  C   UNL     1     -12.422  14.420  71.004  0.00  0.00    +0.000 A 
ATOM     47  C   UNL     1     -12.203  15.718  70.587  0.00  0.00    +0.000 A 
ATOM     48  C   UNL     1     -10.863  12.487  68.350  0.00  0.00    +0.018 A 
ATOM     49  C   UNL     1     -10.130  12.839  67.228  0.00  0.00    +0.084 A 
ATOM     50  C   UNL     1      -9.799  11.822  66.345  0.00  0.00    +0.019 A 
ATOM     51  C   UNL     1     -10.500  10.624  66.342  0.00  0.00    +0.002 A 
ATOM     52  C   UNL     1     -11.106  10.284  67.535  0.00  0.00    +0.000 A 
ATOM     53  C   UNL     1     -11.387  11.208  68.513  0.00  0.00    +0.001 A 
ATOM     54  C   UNL     1     -11.519  15.876  69.392  0.00  0.00    +0.005 A 
ATOM     55  N   UNL     1      -9.466  14.015  67.210  0.00  0.00    -0.212 NA
ENDBRANCH  41  42
ENDBRANCH   7  41
TORSDOF 7
ENDMDL
MODEL 3
REMARK VINA RESULT:      -8.3      3.939     10.672
REMARK  Name = 
REMARK  7 active torsions:
REMARK  status: ('A' for Active; 'I' for Inactive)
REMARK    1  A    between atoms: C_5  and  C_6
REMARK    2  A    between atoms: N_8  and  C_9
REMARK    3  A    between atoms: C_19  and  C_20
REMARK    4  A    between atoms: N_22  and  S_23
REMARK    5  A    between atoms: S_23  and  C_26
REMARK    6  A    between atoms: C_34  and  O_35
REMARK    7  A    between atoms: O_35  and  C_36
REMARK                            x       y       z     vdW  Elec       q    Type
REMARK                         _______ _______ _______ _____ _____    ______ ____
ROOT
ATOM      1  C   UNL     1      -8.863   8.305  67.377  0.00  0.00    +0.172 C 
ATOM      2  C   UNL     1      -8.765   9.537  66.311  0.00  0.00    +0.246 C 
ATOM      3  O   UNL     1      -7.811   9.454  65.515  0.00  0.00    -0.273 OA
ATOM      4  N   UNL     1      -9.233  10.791  66.698  0.00  0.00    -0.268 N 
ATOM      5  C   UNL     1      -9.761  10.975  68.192  0.00  0.00    +0.157 C 
ATOM      6  C   UNL     1     -10.637  12.320  67.781  0.00  0.00    +0.075 C 
ATOM      7  C   UNL     1      -9.483  13.124  66.895  0.00  0.00    +0.189 C 
ATOM      8  C   UNL     1     -11.045   9.983  67.989  0.00  0.00    +0.260 C 
ATOM      9  O   UNL     1     -11.619  10.070  66.890  0.00  0.00    -0.272 OA
ATOM     10  N   UNL     1     -11.945  10.017  69.112  0.00  0.00    -0.198 NA
ATOM     11  C   UNL     1     -11.729  10.504  70.360  0.00  0.00    +0.154 C 
ATOM     12  C   UNL     1     -11.289   9.259  71.410  0.00  0.00    +0.051 C 
ATOM     13  C   UNL     1     -11.176   8.099  70.208  0.00  0.00    -0.029 C 
ATOM     14  C   UNL     1     -10.894   6.984  70.901  0.00  0.00    -0.031 C 
ATOM     15  C   UNL     1      -9.456   7.018  71.333  0.00  0.00    +0.026 C 
ATOM     16  C   UNL     1      -8.730   6.769  70.013  0.00  0.00    +0.005 C 
ATOM     17  C   UNL     1      -7.360   7.380  70.011  0.00  0.00    +0.000 C 
ATOM     18  C   UNL     1      -7.164   8.509  69.091  0.00  0.00    +0.002 C 
ATOM     19  C   UNL     1     -10.128  10.292  70.757  0.00  0.00    +0.036 C 
ATOM     20  C   UNL     1      -8.347  11.920  67.015  0.00  0.00    +0.137 C 
ATOM     21  C   UNL     1      -7.211   8.225  67.634  0.00  0.00    +0.031 C 
ENDROOT
BRANCH   1  23
ATOM     22  C   UNL     1      -9.783   6.185  66.238  0.00  0.00    +0.284 C 
ATOM     23  N   UNL     1      -8.916   7.227  66.206  0.00  0.00    -0.193 NA
ATOM     24  O   UNL     1     -10.487   5.954  67.234  0.00  0.00    -0.267 OA
BRANCH  22  29
ATOM     25  C   UNL     1      -9.204   2.759  61.956  0.00  0.00    +0.054 C 
ATOM     26  C   UNL     1      -9.398   3.687  62.986  0.00  0.00    +0.079 A 
ATOM     27  N   UNL     1     -10.389   3.462  63.874  0.00  0.00    -0.245 NA
ATOM     28  C   UNL     1     -10.553   4.212  64.991  0.00  0.00    +0.122 A 
ATOM     29  C   UNL     1      -9.497   5.028  65.377  0.00  0.00    +0.155 A 
ATOM     30  N   UNL     1      -8.377   5.068  64.615  0.00  0.00    -0.236 NA
ATOM     31  C   UNL     1      -8.373   4.527  63.371  0.00  0.00    +0.114 A 
ENDBRANCH  22  29
ENDBRANCH   1  23
BRANCH  11  32
ATOM     32  C   UNL     1     -12.532  11.275  71.262  0.00  0.00    +0.280 C 
ATOM     33  N   UNL     1     -12.386  12.683  71.108  0.00  0.00    -0.062 NA
ATOM     34  O   UNL     1     -13.497  10.945  71.963  0.00  0.00    -0.270 OA
BRANCH  33  35
ATOM     35  S   UNL     1     -13.182  13.955  71.838  0.00  0.00    +0.074 S 
ATOM     36  O   UNL     1     -14.646  13.698  72.128  0.00  0.00    -0.153 OA
ATOM     37  O   UNL     1     -12.589  14.042  73.234  0.00  0.00    -0.153 OA
BRANCH  35  38
ATOM     38  C   UNL     1     -12.927  15.545  71.125  0.00  0.00    +0.151 C 
ATOM     39  C   UNL     1     -11.432  15.918  70.908  0.00  0.00    +0.027 C 
ATOM     40  C   UNL     1     -12.295  15.577  69.757  0.00  0.00    +0.027 C 
ENDBRANCH  35  38
ENDBRANCH  33  35
ENDBRANCH  11  32
BRANCH   7  41
ATOM     41  O   UNL     1      -8.902  13.843  68.152  0.00  0.00    -0.462 OA
BRANCH  41  42
ATOM     42  C   UNL     1      -8.576  15.181  67.942  0.00  0.00    +0.225 A 
ATOM     43  C   UNL     1      -7.568  15.765  68.701  0.00  0.00    +0.053 A 
ATOM     44  C   UNL     1      -7.458  17.144  68.833  0.00  0.00    +0.006 A 
ATOM     45  C   UNL     1      -6.368  17.707  69.484  0.00  0.00    +0.000 A 
ATOM     46  C   UNL     1      -5.467  16.802  70.032  0.00  0.00    +0.000 A 
ATOM     47  C   UNL     1      -5.400  15.482  69.630  0.00  0.00    +0.000 A 
ATOM     48  C   UNL     1      -8.479  17.962  68.362  0.00  0.00    +0.018 A 
ATOM     49  C   UNL     1      -9.439  17.326  67.590  0.00  0.00    +0.084 A 
ATOM     50  C   UNL     1     -10.400  18.126  66.992  0.00  0.00    +0.019 A 
ATOM     51  C   UNL     1     -10.186  19.486  66.812  0.00  0.00    +0.002 A 
ATOM     52  C   UNL     1      -9.304  20.073  67.698  0.00  0.00    +0.000 A 
ATOM     53  C   UNL     1      -8.379  19.349  68.411  0.00  0.00    +0.001 A 
ATOM     54  C   UNL     1      -6.408  15.041  68.787  0.00  0.00    +0.005 A 
ATOM     55  N   UNL     1      -9.636  15.998  67.737  0.00  0.00    -0.212 NA
ENDBRANCH  41  42
ENDBRANCH   7  41
TORSDOF 7
ENDMDL
MODEL 4
REMARK VINA RESULT:      -8.3      5.154     11.157
REMARK  Name = 
REMARK  7 active torsions:
REMARK  status: ('A' for Active; 'I' for Inactive)
REMARK    1  A    between atoms: C_5  and  C_6
REMARK    2  A    between atoms: N_8  and  C_9
REMARK    3  A    between atoms: C_19  and  C_20
REMARK    4  A    between atoms: N_22  and  S_23
REMARK    5  A    between atoms: S_23  and  C_26
REMARK    6  A    between atoms: C_34  and  O_35
REMARK    7  A    between atoms: O_35  and  C_36
REMARK                            x       y       z     vdW  Elec       q    Type
REMARK                         _______ _______ _______ _____ _____    ______ ____
ROOT
ATOM      1  C   UNL     1      -8.468   6.350  67.199  0.00  0.00    +0.172 C 
ATOM      2  C   UNL     1      -9.988   6.759  67.631  0.00  0.00    +0.246 C 
ATOM      3  O   UNL     1     -10.874   6.316  66.875  0.00  0.00    -0.273 OA
ATOM      4  N   UNL     1     -10.189   7.965  68.298  0.00  0.00    -0.268 N 
ATOM      5  C   UNL     1      -8.935   8.923  68.527  0.00  0.00    +0.157 C 
ATOM      6  C   UNL     1      -9.691   9.716  69.770  0.00  0.00    +0.075 C 
ATOM      7  C   UNL     1     -11.173   9.963  69.061  0.00  0.00    +0.189 C 
ATOM      8  C   UNL     1      -8.178   7.890  69.544  0.00  0.00    +0.260 C 
ATOM      9  O   UNL     1      -8.918   7.286  70.340  0.00  0.00    -0.272 OA
ATOM     10  N   UNL     1      -7.024   8.483  70.167  0.00  0.00    -0.198 NA
ATOM     11  C   UNL     1      -6.355   9.611  69.817  0.00  0.00    +0.154 C 
ATOM     12  C   UNL     1      -5.009   9.227  68.876  0.00  0.00    +0.051 C 
ATOM     13  C   UNL     1      -5.392   7.604  68.740  0.00  0.00    -0.029 C 
ATOM     14  C   UNL     1      -4.348   7.110  68.056  0.00  0.00    -0.031 C 
ATOM     15  C   UNL     1      -4.471   7.504  66.611  0.00  0.00    +0.026 C 
ATOM     16  C   UNL     1      -5.615   6.608  66.142  0.00  0.00    +0.005 C 
ATOM     17  C   UNL     1      -6.362   7.221  64.994  0.00  0.00    +0.000 C 
ATOM     18  C   UNL     1      -7.743   7.635  65.278  0.00  0.00    +0.002 C 
ATOM     19  C   UNL     1      -6.428   9.796  68.166  0.00  0.00    +0.036 C 
ATOM     20  C   UNL     1     -10.803   9.142  67.667  0.00  0.00    +0.137 C 
ATOM     21  C   UNL     1      -8.737   6.569  65.561  0.00  0.00    +0.031 C 
ENDROOT
BRANCH   1  23
ATOM     22  C   UNL     1      -8.288   3.970  68.167  0.00  0.00    +0.284 C 
ATOM     23  N   UNL     1      -8.819   4.798  67.233  0.00  0.00    -0.193 NA
ATOM     24  O   UNL     1      -7.412   4.356  68.956  0.00  0.00    -0.267 OA
BRANCH  22  29
ATOM     25  C   UNL     1      -9.340  -1.037  66.110  0.00  0.00    +0.054 C 
ATOM     26  C   UNL     1      -9.145   0.266  66.582  0.00  0.00    +0.079 A 
ATOM     27  N   UNL     1      -9.625   0.586  67.801  0.00  0.00    -0.245 NA
ATOM     28  C   UNL     1      -9.350   1.766  68.409  0.00  0.00    +0.122 A 
ATOM     29  C   UNL     1      -8.306   2.525  67.893  0.00  0.00    +0.155 A 
ATOM     30  N   UNL     1      -7.639   2.079  66.800  0.00  0.00    -0.236 NA
ATOM     31  C   UNL     1      -8.132   1.050  66.068  0.00  0.00    +0.114 A 
ENDBRANCH  22  29
ENDBRANCH   1  23
BRANCH  11  32
ATOM     32  C   UNL     1      -5.791  10.688  70.575  0.00  0.00    +0.280 C 
ATOM     33  N   UNL     1      -5.991  11.972  69.992  0.00  0.00    -0.062 NA
ATOM     34  O   UNL     1      -5.391  10.725  71.746  0.00  0.00    -0.270 OA
BRANCH  33  35
ATOM     35  S   UNL     1      -5.623  13.500  70.553  0.00  0.00    +0.074 S 
ATOM     36  O   UNL     1      -5.981  13.741  72.004  0.00  0.00    -0.153 OA
ATOM     37  O   UNL     1      -4.104  13.553  70.584  0.00  0.00    -0.153 OA
BRANCH  35  38
ATOM     38  C   UNL     1      -6.113  14.844  69.526  0.00  0.00    +0.151 C 
ATOM     39  C   UNL     1      -7.120  14.460  68.404  0.00  0.00    +0.027 C 
ATOM     40  C   UNL     1      -7.568  15.237  69.579  0.00  0.00    +0.027 C 
ENDBRANCH  35  38
ENDBRANCH  33  35
ENDBRANCH  11  32
BRANCH   7  41
ATOM     41  O   UNL     1     -10.731  11.316  68.420  0.00  0.00    -0.462 OA
BRANCH  41  42
ATOM     42  C   UNL     1     -11.456  12.420  68.865  0.00  0.00    +0.225 A 
ATOM     43  C   UNL     1     -11.078  13.694  68.456  0.00  0.00    +0.053 A 
ATOM     44  C   UNL     1     -11.480  14.832  69.145  0.00  0.00    +0.006 A 
ATOM     45  C   UNL     1     -11.202  16.097  68.643  0.00  0.00    +0.000 A 
ATOM     46  C   UNL     1     -10.454  16.124  67.472  0.00  0.00    +0.000 A 
ATOM     47  C   UNL     1     -10.342  15.031  66.635  0.00  0.00    +0.000 A 
ATOM     48  C   UNL     1     -12.111  14.701  70.377  0.00  0.00    +0.018 A 
ATOM     49  C   UNL     1     -12.487  13.410  70.715  0.00  0.00    +0.084 A 
ATOM     50  C   UNL     1     -13.236  13.253  71.872  0.00  0.00    +0.019 A 
ATOM     51  C   UNL     1     -13.928  14.322  72.424  0.00  0.00    +0.002 A 
ATOM     52  C   UNL     1     -13.421  15.574  72.138  0.00  0.00    +0.000 A 
ATOM     53  C   UNL     1     -12.591  15.810  71.067  0.00  0.00    +0.001 A 
ATOM     54  C   UNL     1     -10.851  13.833  67.112  0.00  0.00    +0.005 A 
ATOM     55  N   UNL     1     -11.838  12.363  70.163  0.00  0.00    -0.212 NA
ENDBRANCH  41  42
ENDBRANCH   7  41
TORSDOF 7
ENDMDL
MODEL 5
REMARK VINA RESULT:      -8.2      6.042     12.784
REMARK  Name = 
REMARK  7 active torsions:
REMARK  status: ('A' for Active; 'I' for Inactive)
REMARK    1  A    between atoms: C_5  and  C_6
REMARK    2  A    between atoms: N_8  and  C_9
REMARK    3  A    between atoms: C_19  and  C_20
REMARK    4  A    between atoms: N_22  and  S_23
REMARK    5  A    between atoms: S_23  and  C_26
REMARK    6  A    between atoms: C_34  and  O_35
REMARK    7  A    between atoms: O_35  and  C_36
REMARK                            x       y       z     vdW  Elec       q    Type
REMARK                         _______ _______ _______ _____ _____    ______ ____
ROOT
ATOM      1  C   UNL     1      -9.250   4.963  72.277  0.00  0.00    +0.172 C 
ATOM      2  C   UNL     1     -10.576   5.644  72.942  0.00  0.00    +0.246 C 
ATOM      3  O   UNL     1     -11.472   4.834  73.246  0.00  0.00    -0.273 OA
ATOM      4  N   UNL     1     -10.916   6.942  72.567  0.00  0.00    -0.268 N 
ATOM      5  C   UNL     1     -10.041   7.662  71.445  0.00  0.00    +0.157 C 
ATOM      6  C   UNL     1     -10.540   9.164  71.933  0.00  0.00    +0.075 C 
ATOM      7  C   UNL     1     -12.171   8.870  72.063  0.00  0.00    +0.189 C 
ATOM      8  C   UNL     1      -8.692   7.726  72.367  0.00  0.00    +0.260 C 
ATOM      9  O   UNL     1      -8.878   7.986  73.568  0.00  0.00    -0.272 OA
ATOM     10  N   UNL     1      -7.653   8.516  71.762  0.00  0.00    -0.198 NA
ATOM     11  C   UNL     1      -7.546   8.939  70.476  0.00  0.00    +0.154 C 
ATOM     12  C   UNL     1      -6.555   7.896  69.595  0.00  0.00    +0.051 C 
ATOM     13  C   UNL     1      -6.415   6.767  70.823  0.00  0.00    -0.029 C 
ATOM     14  C   UNL     1      -5.567   5.867  70.301  0.00  0.00    -0.031 C 
ATOM     15  C   UNL     1      -6.295   5.027  69.290  0.00  0.00    +0.026 C 
ATOM     16  C   UNL     1      -7.175   4.158  70.186  0.00  0.00    +0.005 C 
ATOM     17  C   UNL     1      -8.425   3.723  69.479  0.00  0.00    +0.000 C 
ATOM     18  C   UNL     1      -9.680   4.286  69.992  0.00  0.00    +0.002 C 
ATOM     19  C   UNL     1      -8.233   7.804  69.473  0.00  0.00    +0.036 C 
ATOM     20  C   UNL     1     -12.054   7.256  71.692  0.00  0.00    +0.137 C 
ATOM     21  C   UNL     1     -10.117   3.872  71.350  0.00  0.00    +0.031 C 
ENDROOT
BRANCH   1  23
ATOM     22  C   UNL     1      -7.996   4.162  74.381  0.00  0.00    +0.284 C 
ATOM     23  N   UNL     1      -9.046   4.008  73.535  0.00  0.00    -0.193 NA
ATOM     24  O   UNL     1      -7.084   4.970  74.145  0.00  0.00    -0.267 OA
BRANCH  22  29
ATOM     25  C   UNL     1      -7.816  -0.719  76.940  0.00  0.00    +0.054 C 
ATOM     26  C   UNL     1      -7.945   0.496  76.256  0.00  0.00    +0.079 A 
ATOM     27  N   UNL     1      -8.348   1.581  76.948  0.00  0.00    -0.245 NA
ATOM     28  C   UNL     1      -8.350   2.828  76.415  0.00  0.00    +0.122 A 
ATOM     29  C   UNL     1      -7.635   3.024  75.239  0.00  0.00    +0.155 A 
ATOM     30  N   UNL     1      -7.004   1.972  74.664  0.00  0.00    -0.236 NA
ATOM     31  C   UNL     1      -7.266   0.706  75.073  0.00  0.00    +0.114 A 
ENDBRANCH  22  29
ENDBRANCH   1  23
BRANCH  11  32
ATOM     32  C   UNL     1      -7.139  10.178  69.884  0.00  0.00    +0.280 C 
ATOM     33  N   UNL     1      -6.356  11.000  70.744  0.00  0.00    -0.062 NA
ATOM     34  O   UNL     1      -7.133  10.541  68.701  0.00  0.00    -0.270 OA
BRANCH  33  35
ATOM     35  S   UNL     1      -5.577  12.449  70.465  0.00  0.00    +0.074 S 
ATOM     36  O   UNL     1      -6.370  13.441  69.640  0.00  0.00    -0.153 OA
ATOM     37  O   UNL     1      -5.520  13.134  71.820  0.00  0.00    -0.153 OA
BRANCH  35  38
ATOM     38  C   UNL     1      -3.903  12.343  69.928  0.00  0.00    +0.151 C 
ATOM     39  C   UNL     1      -3.642  11.243  68.859  0.00  0.00    +0.027 C 
ATOM     40  C   UNL     1      -3.637  12.673  68.481  0.00  0.00    +0.027 C 
ENDBRANCH  35  38
ENDBRANCH  33  35
ENDBRANCH  11  32
BRANCH   7  41
ATOM     41  O   UNL     1     -12.437   9.229  70.568  0.00  0.00    -0.462 OA
BRANCH  41  42
ATOM     42  C   UNL     1     -12.615  10.590  70.332  0.00  0.00    +0.225 A 
ATOM     43  C   UNL     1     -11.735  11.258  69.487  0.00  0.00    +0.053 A 
ATOM     44  C   UNL     1     -11.605  12.641  69.514  0.00  0.00    +0.006 A 
ATOM     45  C   UNL     1     -10.821  13.294  68.572  0.00  0.00    +0.000 A 
ATOM     46  C   UNL     1     -10.148  12.470  67.678  0.00  0.00    +0.000 A 
ATOM     47  C   UNL     1     -10.524  11.161  67.446  0.00  0.00    +0.000 A 
ATOM     48  C   UNL     1     -12.216  13.369  70.529  0.00  0.00    +0.018 A 
ATOM     49  C   UNL     1     -13.102  12.653  71.319  0.00  0.00    +0.084 A 
ATOM     50  C   UNL     1     -13.831  13.368  72.257  0.00  0.00    +0.019 A 
ATOM     51  C   UNL     1     -13.995  14.742  72.138  0.00  0.00    +0.002 A 
ATOM     52  C   UNL     1     -13.006  15.402  71.435  0.00  0.00    +0.000 A 
ATOM     53  C   UNL     1     -12.168  14.759  70.554  0.00  0.00    +0.001 A 
ATOM     54  C   UNL     1     -11.488  10.636  68.292  0.00  0.00    +0.005 A 
ATOM     55  N   UNL     1     -12.968  11.314  71.421  0.00  0.00    -0.212 NA
ENDBRANCH  41  42
ENDBRANCH   7  41
TORSDOF 7
ENDMDL
MODEL 6
REMARK VINA RESULT:      -7.9      4.994     12.090
REMARK  Name = 
REMARK  7 active torsions:
REMARK  status: ('A' for Active; 'I' for Inactive)
REMARK    1  A    between atoms: C_5  and  C_6
REMARK    2  A    between atoms: N_8  and  C_9
REMARK    3  A    between atoms: C_19  and  C_20
REMARK    4  A    between atoms: N_22  and  S_23
REMARK    5  A    between atoms: S_23  and  C_26
REMARK    6  A    between atoms: C_34  and  O_35
REMARK    7  A    between atoms: O_35  and  C_36
REMARK                            x       y       z     vdW  Elec       q    Type
REMARK                         _______ _______ _______ _____ _____    ______ ____
ROOT
ATOM      1  C   UNL     1      -8.655   5.230  70.874  0.00  0.00    +0.172 C 
ATOM      2  C   UNL     1      -9.665   5.950  71.937  0.00  0.00    +0.246 C 
ATOM      3  O   UNL     1     -10.423   5.165  72.537  0.00  0.00    -0.273 OA
ATOM      4  N   UNL     1     -10.083   7.253  71.679  0.00  0.00    -0.268 N 
ATOM      5  C   UNL     1      -9.622   7.942  70.317  0.00  0.00    +0.157 C 
ATOM      6  C   UNL     1      -9.894   9.460  70.921  0.00  0.00    +0.075 C 
ATOM      7  C   UNL     1     -11.392   9.209  71.598  0.00  0.00    +0.189 C 
ATOM      8  C   UNL     1      -8.040   7.978  70.729  0.00  0.00    +0.260 C 
ATOM      9  O   UNL     1      -7.804   8.251  71.918  0.00  0.00    -0.272 OA
ATOM     10  N   UNL     1      -7.249   8.737  69.796  0.00  0.00    -0.198 NA
ATOM     11  C   UNL     1      -7.573   9.147  68.543  0.00  0.00    +0.154 C 
ATOM     12  C   UNL     1      -6.960   8.073  67.396  0.00  0.00    +0.051 C 
ATOM     13  C   UNL     1      -6.439   6.950  68.522  0.00  0.00    -0.029 C 
ATOM     14  C   UNL     1      -5.837   6.025  67.758  0.00  0.00    -0.031 C 
ATOM     15  C   UNL     1      -6.881   5.196  67.065  0.00  0.00    +0.026 C 
ATOM     16  C   UNL     1      -7.426   4.357  68.219  0.00  0.00    +0.005 C 
ATOM     17  C   UNL     1      -8.850   3.949  67.981  0.00  0.00    +0.000 C 
ATOM     18  C   UNL     1      -9.846   4.548  68.879  0.00  0.00    +0.002 C 
ATOM     19  C   UNL     1      -8.583   8.024  67.848  0.00  0.00    +0.036 C 
ATOM     20  C   UNL     1     -11.442   7.590  71.234  0.00  0.00    +0.137 C 
ATOM     21  C   UNL     1      -9.808   4.155  70.310  0.00  0.00    +0.031 C 
ENDROOT
BRANCH   1  23
ATOM     22  C   UNL     1      -6.790   4.424  72.458  0.00  0.00    +0.284 C 
ATOM     23  N   UNL     1      -8.060   4.279  72.004  0.00  0.00    -0.193 NA
ATOM     24  O   UNL     1      -5.997   5.220  71.930  0.00  0.00    -0.267 OA
BRANCH  22  29
ATOM     25  C   UNL     1      -5.216  -0.613  74.056  0.00  0.00    +0.054 C 
ATOM     26  C   UNL     1      -5.676   0.625  73.592  0.00  0.00    +0.079 A 
ATOM     27  N   UNL     1      -6.574   1.297  74.341  0.00  0.00    -0.245 NA
ATOM     28  C   UNL     1      -6.957   2.566  74.059  0.00  0.00    +0.122 A 
ATOM     29  C   UNL     1      -6.179   3.287  73.161  0.00  0.00    +0.155 A 
ATOM     30  N   UNL     1      -5.105   2.690  72.587  0.00  0.00    -0.236 NA
ATOM     31  C   UNL     1      -4.934   1.348  72.680  0.00  0.00    +0.114 A 
ENDBRANCH  22  29
ENDBRANCH   1  23
BRANCH  11  32
ATOM     32  C   UNL     1      -7.362  10.371  67.830  0.00  0.00    +0.280 C 
ATOM     33  N   UNL     1      -6.428  11.250  68.450  0.00  0.00    -0.062 NA
ATOM     34  O   UNL     1      -7.651  10.686  66.668  0.00  0.00    -0.270 OA
BRANCH  33  35
ATOM     35  S   UNL     1      -5.790  12.706  67.945  0.00  0.00    +0.074 S 
ATOM     36  O   UNL     1      -4.682  13.246  68.824  0.00  0.00    -0.153 OA
ATOM     37  O   UNL     1      -5.052  12.388  66.656  0.00  0.00    -0.153 OA
BRANCH  35  38
ATOM     38  C   UNL     1      -6.953  13.958  67.516  0.00  0.00    +0.151 C 
ATOM     39  C   UNL     1      -7.551  14.721  68.733  0.00  0.00    +0.027 C 
ATOM     40  C   UNL     1      -6.567  15.378  67.846  0.00  0.00    +0.027 C 
ENDBRANCH  35  38
ENDBRANCH  33  35
ENDBRANCH  11  32
BRANCH   7  41
ATOM     41  O   UNL     1     -12.139   9.563  70.274  0.00  0.00    -0.462 OA
BRANCH  41  42
ATOM     42  C   UNL     1     -12.456  10.914  70.145  0.00  0.00    +0.225 A 
ATOM     43  C   UNL     1     -11.771  11.690  69.217  0.00  0.00    +0.053 A 
ATOM     44  C   UNL     1     -11.746  13.077  69.301  0.00  0.00    +0.006 A 
ATOM     45  C   UNL     1     -11.168  13.836  68.292  0.00  0.00    +0.000 A 
ATOM     46  C   UNL     1     -10.577  13.112  67.263  0.00  0.00    +0.000 A 
ATOM     47  C   UNL     1     -10.881  11.787  67.017  0.00  0.00    +0.000 A 
ATOM     48  C   UNL     1     -12.249  13.705  70.436  0.00  0.00    +0.018 A 
ATOM     49  C   UNL     1     -12.946  12.882  71.307  0.00  0.00    +0.084 A 
ATOM     50  C   UNL     1     -13.577  13.491  72.382  0.00  0.00    +0.019 A 
ATOM     51  C   UNL     1     -13.863  14.849  72.365  0.00  0.00    +0.002 A 
ATOM     52  C   UNL     1     -13.047  15.622  71.562  0.00  0.00    +0.000 A 
ATOM     53  C   UNL     1     -12.307  15.092  70.532  0.00  0.00    +0.001 A 
ATOM     54  C   UNL     1     -11.661  11.145  67.965  0.00  0.00    +0.005 A 
ATOM     55  N   UNL     1     -12.694  11.556  71.313  0.00  0.00    -0.212 NA
ENDBRANCH  41  42
ENDBRANCH   7  41
TORSDOF 7
ENDMDL
MODEL 7
REMARK VINA RESULT:      -7.9      4.753     11.868
REMARK  Name = 
REMARK  7 active torsions:
REMARK  status: ('A' for Active; 'I' for Inactive)
REMARK    1  A    between atoms: C_5  and  C_6
REMARK    2  A    between atoms: N_8  and  C_9
REMARK    3  A    between atoms: C_19  and  C_20
REMARK    4  A    between atoms: N_22  and  S_23
REMARK    5  A    between atoms: S_23  and  C_26
REMARK    6  A    between atoms: C_34  and  O_35
REMARK    7  A    between atoms: O_35  and  C_36
REMARK                            x       y       z     vdW  Elec       q    Type
REMARK                         _______ _______ _______ _____ _____    ______ ____
ROOT
ATOM      1  C   UNL     1      -9.246   6.124  69.703  0.00  0.00    +0.172 C 
ATOM      2  C   UNL     1     -10.683   6.898  69.651  0.00  0.00    +0.246 C 
ATOM      3  O   UNL     1     -11.613   6.223  69.172  0.00  0.00    -0.273 OA
ATOM      4  N   UNL     1     -10.687   8.283  69.504  0.00  0.00    -0.268 N 
ATOM      5  C   UNL     1      -9.292   9.030  69.307  0.00  0.00    +0.157 C 
ATOM      6  C   UNL     1      -9.928  10.478  69.798  0.00  0.00    +0.075 C 
ATOM      7  C   UNL     1     -11.328  10.468  68.902  0.00  0.00    +0.189 C 
ATOM      8  C   UNL     1      -8.751   8.671  70.808  0.00  0.00    +0.260 C 
ATOM      9  O   UNL     1      -9.603   8.729  71.711  0.00  0.00    -0.272 OA
ATOM     10  N   UNL     1      -7.527   9.358  71.127  0.00  0.00    -0.198 NA
ATOM     11  C   UNL     1      -6.663   9.989  70.291  0.00  0.00    +0.154 C 
ATOM     12  C   UNL     1      -5.382   8.968  69.890  0.00  0.00    +0.051 C 
ATOM     13  C   UNL     1      -6.038   7.622  70.636  0.00  0.00    -0.029 C 
ATOM     14  C   UNL     1      -5.079   6.697  70.472  0.00  0.00    -0.031 C 
ATOM     15  C   UNL     1      -5.096   6.210  69.051  0.00  0.00    +0.026 C 
ATOM     16  C   UNL     1      -6.367   5.364  69.028  0.00  0.00    +0.005 C 
ATOM     17  C   UNL     1      -6.968   5.305  67.655  0.00  0.00    +0.000 C 
ATOM     18  C   UNL     1      -8.263   5.982  67.495  0.00  0.00    +0.002 C 
ATOM     19  C   UNL     1      -6.663   9.210  68.821  0.00  0.00    +0.036 C 
ATOM     20  C   UNL     1     -11.073   8.960  68.257  0.00  0.00    +0.137 C 
ATOM     21  C   UNL     1      -9.433   5.405  68.203  0.00  0.00    +0.031 C 
ENDROOT
BRANCH   1  23
ATOM     22  C   UNL     1      -9.591   4.783  71.876  0.00  0.00    +0.284 C 
ATOM     23  N   UNL     1      -9.862   4.928  70.554  0.00  0.00    -0.193 NA
ATOM     24  O   UNL     1      -8.757   5.500  72.451  0.00  0.00    -0.267 OA
BRANCH  22  29
ATOM     25  C   UNL     1     -11.625  -0.163  73.219  0.00  0.00    +0.054 C 
ATOM     26  C   UNL     1     -11.186   1.108  72.828  0.00  0.00    +0.079 A 
ATOM     27  N   UNL     1     -11.333   2.131  73.694  0.00  0.00    -0.245 NA
ATOM     28  C   UNL     1     -10.799   3.358  73.473  0.00  0.00    +0.122 A 
ATOM     29  C   UNL     1      -9.829   3.466  72.484  0.00  0.00    +0.155 A 
ATOM     30  N   UNL     1      -9.485   2.367  71.768  0.00  0.00    -0.236 NA
ATOM     31  C   UNL     1     -10.242   1.244  71.830  0.00  0.00    +0.114 A 
ENDBRANCH  22  29
ENDBRANCH   1  23
BRANCH  11  32
ATOM     32  C   UNL     1      -5.940  11.222  70.380  0.00  0.00    +0.280 C 
ATOM     33  N   UNL     1      -5.947  11.986  69.179  0.00  0.00    -0.062 NA
ATOM     34  O   UNL     1      -5.533  11.846  71.369  0.00  0.00    -0.270 OA
BRANCH  33  35
ATOM     35  S   UNL     1      -5.350  13.507  68.843  0.00  0.00    +0.074 S 
ATOM     36  O   UNL     1      -4.109  13.883  69.624  0.00  0.00    -0.153 OA
ATOM     37  O   UNL     1      -4.819  13.418  67.422  0.00  0.00    -0.153 OA
BRANCH  35  38
ATOM     38  C   UNL     1      -6.527  14.817  68.817  0.00  0.00    +0.151 C 
ATOM     39  C   UNL     1      -5.929  16.210  68.468  0.00  0.00    +0.027 C 
ATOM     40  C   UNL     1      -6.764  15.485  67.487  0.00  0.00    +0.027 C 
ENDBRANCH  35  38
ENDBRANCH  33  35
ENDBRANCH  11  32
BRANCH   7  41
ATOM     41  O   UNL     1     -10.642  11.145  67.674  0.00  0.00    -0.462 OA
BRANCH  41  42
ATOM     42  C   UNL     1     -10.953  12.495  67.522  0.00  0.00    +0.225 A 
ATOM     43  C   UNL     1     -11.221  12.994  66.252  0.00  0.00    +0.053 A 
ATOM     44  C   UNL     1     -11.147  14.353  65.971  0.00  0.00    +0.006 A 
ATOM     45  C   UNL     1     -11.547  14.841  64.734  0.00  0.00    +0.000 A 
ATOM     46  C   UNL     1     -11.947  13.880  63.813  0.00  0.00    +0.000 A 
ATOM     47  C   UNL     1     -12.326  12.605  64.186  0.00  0.00    +0.000 A 
ATOM     48  C   UNL     1     -10.610  15.221  66.916  0.00  0.00    +0.018 A 
ATOM     49  C   UNL     1     -10.391  14.670  68.169  0.00  0.00    +0.084 A 
ATOM     50  C   UNL     1      -9.982  15.532  69.175  0.00  0.00    +0.019 A 
ATOM     51  C   UNL     1     -10.186  16.901  69.069  0.00  0.00    +0.002 A 
ATOM     52  C   UNL     1     -10.276  17.393  67.781  0.00  0.00    +0.000 A 
ATOM     53  C   UNL     1     -10.581  16.596  66.703  0.00  0.00    +0.001 A 
ATOM     54  C   UNL     1     -12.103  12.256  65.508  0.00  0.00    +0.005 A 
ATOM     55  N   UNL     1     -10.219  13.336  68.287  0.00  0.00    -0.212 NA
ENDBRANCH  41  42
ENDBRANCH   7  41
TORSDOF 7
ENDMDL
MODEL 8
REMARK VINA RESULT:      -7.9      5.561     10.261
REMARK  Name = 
REMARK  7 active torsions:
REMARK  status: ('A' for Active; 'I' for Inactive)
REMARK    1  A    between atoms: C_5  and  C_6
REMARK    2  A    between atoms: N_8  and  C_9
REMARK    3  A    between atoms: C_19  and  C_20
REMARK    4  A    between atoms: N_22  and  S_23
REMARK    5  A    between atoms: S_23  and  C_26
REMARK    6  A    between atoms: C_34  and  O_35
REMARK    7  A    between atoms: O_35  and  C_36
REMARK                            x       y       z     vdW  Elec       q    Type
REMARK                         _______ _______ _______ _____ _____    ______ ____
ROOT
ATOM      1  C   UNL     1      -7.751   7.988  64.913  0.00  0.00    +0.172 C 
ATOM      2  C   UNL     1      -9.007   8.933  64.472  0.00  0.00    +0.246 C 
ATOM      3  O   UNL     1      -8.906   9.422  63.331  0.00  0.00    -0.273 OA
ATOM      4  N   UNL     1      -9.697   9.628  65.462  0.00  0.00    -0.268 N 
ATOM      5  C   UNL     1      -9.170   9.531  66.964  0.00  0.00    +0.157 C 
ATOM      6  C   UNL     1     -10.640   9.988  67.574  0.00  0.00    +0.075 C 
ATOM      7  C   UNL     1     -10.948  11.282  66.578  0.00  0.00    +0.189 C 
ATOM      8  C   UNL     1      -9.517   7.940  67.111  0.00  0.00    +0.260 C 
ATOM      9  O   UNL     1     -10.579   7.574  66.579  0.00  0.00    -0.272 OA
ATOM     10  N   UNL     1      -9.358   7.467  68.461  0.00  0.00    -0.198 NA
ATOM     11  C   UNL     1      -8.712   8.059  69.498  0.00  0.00    +0.154 C 
ATOM     12  C   UNL     1      -7.148   7.444  69.645  0.00  0.00    +0.051 C 
ATOM     13  C   UNL     1      -7.220   6.545  68.236  0.00  0.00    -0.029 C 
ATOM     14  C   UNL     1      -6.039   5.906  68.232  0.00  0.00    -0.031 C 
ATOM     15  C   UNL     1      -4.954   6.871  67.843  0.00  0.00    +0.026 C 
ATOM     16  C   UNL     1      -5.225   7.054  66.351  0.00  0.00    +0.005 C 
ATOM     17  C   UNL     1      -4.754   8.393  65.865  0.00  0.00    +0.000 C 
ATOM     18  C   UNL     1      -5.808   9.329  65.450  0.00  0.00    +0.002 C 
ATOM     19  C   UNL     1      -7.426   8.934  68.909  0.00  0.00    +0.036 C 
ATOM     20  C   UNL     1      -9.581  11.080  65.657  0.00  0.00    +0.137 C 
ATOM     21  C   UNL     1      -6.593   8.989  64.236  0.00  0.00    +0.031 C 
ENDROOT
BRANCH   1  23
ATOM     22  C   UNL     1      -8.307   5.749  63.766  0.00  0.00    +0.284 C 
ATOM     23  N   UNL     1      -7.943   7.049  63.641  0.00  0.00    -0.193 NA
ATOM     24  O   UNL     1      -8.386   5.199  64.876  0.00  0.00    -0.267 OA
BRANCH  22  29
ATOM     25  C   UNL     1      -8.828   2.214  59.566  0.00  0.00    +0.054 C 
ATOM     26  C   UNL     1      -8.785   3.094  60.654  0.00  0.00    +0.079 A 
ATOM     27  N   UNL     1      -8.235   2.662  61.807  0.00  0.00    -0.245 NA
ATOM     28  C   UNL     1      -8.004   3.484  62.860  0.00  0.00    +0.122 A 
ATOM     29  C   UNL     1      -8.055   4.853  62.628  0.00  0.00    +0.155 A 
ATOM     30  N   UNL     1      -8.362   5.305  61.387  0.00  0.00    -0.236 NA
ATOM     31  C   UNL     1      -8.860   4.457  60.452  0.00  0.00    +0.114 A 
ENDBRANCH  22  29
ENDBRANCH   1  23
BRANCH  11  32
ATOM     32  C   UNL     1      -9.022   8.202  70.889  0.00  0.00    +0.280 C 
ATOM     33  N   UNL     1      -9.904   7.204  71.392  0.00  0.00    -0.062 NA
ATOM     34  O   UNL     1      -8.472   8.876  71.771  0.00  0.00    -0.270 OA
BRANCH  33  35
ATOM     35  S   UNL     1     -10.447   6.900  72.940  0.00  0.00    +0.074 S 
ATOM     36  O   UNL     1      -9.478   7.291  74.035  0.00  0.00    -0.153 OA
ATOM     37  O   UNL     1     -11.589   7.879  73.157  0.00  0.00    -0.153 OA
BRANCH  35  38
ATOM     38  C   UNL     1     -11.143   5.306  73.221  0.00  0.00    +0.151 C 
ATOM     39  C   UNL     1     -10.215   4.123  72.823  0.00  0.00    +0.027 C 
ATOM     40  C   UNL     1     -10.454   4.442  74.246  0.00  0.00    +0.027 C 
ENDBRANCH  35  38
ENDBRANCH  33  35
ENDBRANCH  11  32
BRANCH   7  41
ATOM     41  O   UNL     1     -10.207  12.284  67.517  0.00  0.00    -0.462 OA
BRANCH  41  42
ATOM     42  C   UNL     1     -11.054  13.146  68.211  0.00  0.00    +0.225 A 
ATOM     43  C   UNL     1     -10.829  14.517  68.153  0.00  0.00    +0.053 A 
ATOM     44  C   UNL     1     -11.359  15.385  69.101  0.00  0.00    +0.006 A 
ATOM     45  C   UNL     1     -11.232  16.760  68.949  0.00  0.00    +0.000 A 
ATOM     46  C   UNL     1     -10.497  17.173  67.844  0.00  0.00    +0.000 A 
ATOM     47  C   UNL     1     -10.261  16.354  66.758  0.00  0.00    +0.000 A 
ATOM     48  C   UNL     1     -11.966  14.869  70.240  0.00  0.00    +0.018 A 
ATOM     49  C   UNL     1     -12.188  13.500  70.225  0.00  0.00    +0.084 A 
ATOM     50  C   UNL     1     -12.909  12.965  71.282  0.00  0.00    +0.019 A 
ATOM     51  C   UNL     1     -13.720  13.769  72.072  0.00  0.00    +0.002 A 
ATOM     52  C   UNL     1     -13.363  15.102  72.130  0.00  0.00    +0.000 A 
ATOM     53  C   UNL     1     -12.570  15.699  71.180  0.00  0.00    +0.001 A 
ATOM     54  C   UNL     1     -10.624  15.024  66.897  0.00  0.00    +0.005 A 
ATOM     55  N   UNL     1     -11.422  12.713  69.440  0.00  0.00    -0.212 NA
ENDBRANCH  41  42
ENDBRANCH   7  41
TORSDOF 7
ENDMDL
MODEL 9
REMARK VINA RESULT:      -7.8      5.809     10.077
REMARK  Name = 
REMARK  7 active torsions:
REMARK  status: ('A' for Active; 'I' for Inactive)
REMARK    1  A    between atoms: C_5  and  C_6
REMARK    2  A    between atoms: N_8  and  C_9
REMARK    3  A    between atoms: C_19  and  C_20
REMARK    4  A    between atoms: N_22  and  S_23
REMARK    5  A    between atoms: S_23  and  C_26
REMARK    6  A    between atoms: C_34  and  O_35
REMARK    7  A    between atoms: O_35  and  C_36
REMARK                            x       y       z     vdW  Elec       q    Type
REMARK                         _______ _______ _______ _____ _____    ______ ____
ROOT
ATOM      1  C   UNL     1      -7.611   8.225  64.800  0.00  0.00    +0.172 C 
ATOM      2  C   UNL     1      -8.913   9.168  64.516  0.00  0.00    +0.246 C 
ATOM      3  O   UNL     1      -8.812   9.893  63.509  0.00  0.00    -0.273 OA
ATOM      4  N   UNL     1      -9.673   9.597  65.602  0.00  0.00    -0.268 N 
ATOM      5  C   UNL     1      -9.183   9.214  67.070  0.00  0.00    +0.157 C 
ATOM      6  C   UNL     1     -10.696   9.446  67.702  0.00  0.00    +0.075 C 
ATOM      7  C   UNL     1     -11.059  10.902  66.988  0.00  0.00    +0.189 C 
ATOM      8  C   UNL     1      -9.430   7.610  66.866  0.00  0.00    +0.260 C 
ATOM      9  O   UNL     1     -10.451   7.305  66.226  0.00  0.00    -0.272 OA
ATOM     10  N   UNL     1      -9.278   6.873  68.092  0.00  0.00    -0.198 NA
ATOM     11  C   UNL     1      -8.701   7.267  69.256  0.00  0.00    +0.154 C 
ATOM     12  C   UNL     1      -7.105   6.726  69.334  0.00  0.00    +0.051 C 
ATOM     13  C   UNL     1      -7.079   6.143  67.765  0.00  0.00    -0.029 C 
ATOM     14  C   UNL     1      -5.860   5.589  67.677  0.00  0.00    -0.031 C 
ATOM     15  C   UNL     1      -4.830   6.675  67.542  0.00  0.00    +0.026 C 
ATOM     16  C   UNL     1      -5.070   7.155  66.113  0.00  0.00    +0.005 C 
ATOM     17  C   UNL     1      -4.674   8.591  65.937  0.00  0.00    +0.000 C 
ATOM     18  C   UNL     1      -5.775   9.531  65.686  0.00  0.00    +0.002 C 
ATOM     19  C   UNL     1      -7.458   8.320  68.916  0.00  0.00    +0.036 C 
ATOM     20  C   UNL     1      -9.657  10.979  66.102  0.00  0.00    +0.137 C 
ATOM     21  C   UNL     1      -6.502   9.411  64.397  0.00  0.00    +0.031 C 
ENDROOT
BRANCH   1  23
ATOM     22  C   UNL     1      -8.085   6.276  63.183  0.00  0.00    +0.284 C 
ATOM     23  N   UNL     1      -7.706   7.567  63.353  0.00  0.00    -0.193 NA
ATOM     24  O   UNL     1      -8.253   5.515  64.149  0.00  0.00    -0.267 OA
BRANCH  22  29
ATOM     25  C   UNL     1      -7.032   2.606  59.204  0.00  0.00    +0.054 C 
ATOM     26  C   UNL     1      -7.299   3.467  60.276  0.00  0.00    +0.079 A 
ATOM     27  N   UNL     1      -6.275   4.167  60.806  0.00  0.00    -0.245 NA
ATOM     28  C   UNL     1      -6.458   5.138  61.734  0.00  0.00    +0.122 A 
ATOM     29  C   UNL     1      -7.748   5.625  61.909  0.00  0.00    +0.155 A 
ATOM     30  N   UNL     1      -8.761   5.093  61.182  0.00  0.00    -0.236 NA
ATOM     31  C   UNL     1      -8.577   3.943  60.486  0.00  0.00    +0.114 A 
ENDBRANCH  22  29
ENDBRANCH   1  23
BRANCH  11  32
ATOM     32  C   UNL     1      -9.057   7.095  70.632  0.00  0.00    +0.280 C 
ATOM     33  N   UNL     1     -10.376   7.530  70.947  0.00  0.00    -0.062 NA
ATOM     34  O   UNL     1      -8.526   6.418  71.522  0.00  0.00    -0.270 OA
BRANCH  33  35
ATOM     35  S   UNL     1     -11.256   7.428  72.361  0.00  0.00    +0.074 S 
ATOM     36  O   UNL     1     -11.702   6.027  72.726  0.00  0.00    -0.153 OA
ATOM     37  O   UNL     1     -10.264   7.746  73.467  0.00  0.00    -0.153 OA
BRANCH  35  38
ATOM     38  C   UNL     1     -12.557   8.599  72.554  0.00  0.00    +0.151 C 
ATOM     39  C   UNL     1     -13.002   9.287  71.232  0.00  0.00    +0.027 C 
ATOM     40  C   UNL     1     -13.863   8.273  71.876  0.00  0.00    +0.027 C 
ENDBRANCH  35  38
ENDBRANCH  33  35
ENDBRANCH  11  32
BRANCH   7  41
ATOM     41  O   UNL     1     -10.411  11.724  68.145  0.00  0.00    -0.462 OA
BRANCH  41  42
ATOM     42  C   UNL     1     -11.251  12.688  68.698  0.00  0.00    +0.225 A 
ATOM     43  C   UNL     1     -10.982  14.035  68.476  0.00  0.00    +0.053 A 
ATOM     44  C   UNL     1     -11.513  15.029  69.290  0.00  0.00    +0.006 A 
ATOM     45  C   UNL     1     -11.340  16.369  68.970  0.00  0.00    +0.000 A 
ATOM     46  C   UNL     1     -10.560  16.621  67.848  0.00  0.00    +0.000 A 
ATOM     47  C   UNL     1     -10.318  15.664  66.881  0.00  0.00    +0.000 A 
ATOM     48  C   UNL     1     -12.169  14.677  70.464  0.00  0.00    +0.018 A 
ATOM     49  C   UNL     1     -12.432  13.324  70.613  0.00  0.00    +0.084 A 
ATOM     50  C   UNL     1     -13.200  12.946  71.704  0.00  0.00    +0.019 A 
ATOM     51  C   UNL     1     -14.008  13.865  72.360  0.00  0.00    +0.002 A 
ATOM     52  C   UNL     1     -13.613  15.184  72.263  0.00  0.00    +0.000 A 
ATOM     53  C   UNL     1     -12.774  15.635  71.272  0.00  0.00    +0.001 A 
ATOM     54  C   UNL     1     -10.726  14.373  67.174  0.00  0.00    +0.005 A 
ATOM     55  N   UNL     1     -11.668  12.424  69.958  0.00  0.00    -0.212 NA
ENDBRANCH  41  42
ENDBRANCH   7  41
TORSDOF 7
ENDMDL
