MODEL 1
REMARK VINA RESULT:      -7.4      0.000      0.000
REMARK  Name = 
REMARK  3 active torsions:
REMARK  status: ('A' for Active; 'I' for Inactive)
REMARK    1  A    between atoms: O_2  and  C_3
REMARK    2  A    between atoms: C_12  and  C_14
REMARK    3  A    between atoms: C_26  and  O_27
REMARK                            x       y       z     vdW  Elec       q    Type
REMARK                         _______ _______ _______ _____ _____    ______ ____
ROOT
ATOM      1  C   UNL     1     -12.481  14.635  71.727  0.00  0.00    +0.174 A 
ATOM      2  C   UNL     1     -12.436  13.546  70.867  0.00  0.00    +0.173 A 
ATOM      3  C   UNL     1     -12.387  13.807  69.515  0.00  0.00    +0.044 A 
ATOM      4  C   UNL     1     -11.687  14.933  69.115  0.00  0.00    +0.056 A 
ATOM      5  C   UNL     1     -11.637  16.028  69.956  0.00  0.00    +0.090 A 
ATOM      6  N   UNL     1     -10.985  17.109  69.501  0.00  0.00    -0.213 NA
ATOM      7  C   UNL     1     -10.630  17.275  68.209  0.00  0.00    +0.221 A 
ATOM      8  N   UNL     1     -10.894  16.240  67.376  0.00  0.00    -0.195 NA
ATOM      9  N   UNL     1     -10.073  18.510  67.740  0.00  0.00    -0.275 N 
ATOM     10  C   UNL     1      -9.156  19.274  68.581  0.00  0.00    +0.115 C 
ATOM     11  C   UNL     1      -7.861  19.585  67.846  0.00  0.00    +0.115 C 
ATOM     12  N   UNL     1      -7.489  18.406  67.069  0.00  0.00    -0.270 N 
ATOM     13  C   UNL     1      -6.115  18.262  66.688  0.00  0.00    +0.284 C 
ATOM     14  O   UNL     1      -5.487  17.185  66.915  0.00  0.00    -0.267 OA
ATOM     15  C   UNL     1      -8.465  17.932  66.093  0.00  0.00    +0.115 C 
ATOM     16  C   UNL     1      -9.819  18.602  66.304  0.00  0.00    +0.115 C 
ATOM     17  C   UNL     1     -11.062  15.016  67.879  0.00  0.00    +0.174 A 
ATOM     18  N   UNL     1     -10.902  13.843  67.106  0.00  0.00    -0.107 NA
ATOM     19  C   UNL     1     -11.916  15.819  71.299  0.00  0.00    +0.059 A 
ENDROOT
BRANCH  13  20
ATOM     20  C   UNL     1      -5.710  19.033  65.507  0.00  0.00    +0.199 A 
ATOM     21  O   UNL     1      -5.854  18.624  64.259  0.00  0.00    -0.446 OA
ATOM     22  C   UNL     1      -5.743  19.624  63.431  0.00  0.00    +0.180 A 
ATOM     23  C   UNL     1      -5.264  20.712  64.130  0.00  0.00    +0.044 A 
ATOM     24  C   UNL     1      -5.241  20.339  65.458  0.00  0.00    +0.045 A 
ENDBRANCH  13  20
BRANCH   1  26
ATOM     25  C   UNL     1     -12.430  15.193  74.121  0.00  0.00    +0.253 C 
ATOM     26  O   UNL     1     -12.818  14.374  73.042  0.00  0.00    -0.468 OA
ENDBRANCH   1  26
BRANCH   2  27
ATOM     27  O   UNL     1     -12.465  12.249  71.388  0.00  0.00    -0.468 OA
ATOM     28  C   UNL     1     -12.262  11.146  70.514  0.00  0.00    +0.253 C 
ENDBRANCH   2  27
TORSDOF 3
ENDMDL
MODEL 2
REMARK VINA RESULT:      -7.2      2.912      3.896
REMARK  Name = 
REMARK  3 active torsions:
REMARK  status: ('A' for Active; 'I' for Inactive)
REMARK    1  A    between atoms: O_2  and  C_3
REMARK    2  A    between atoms: C_12  and  C_14
REMARK    3  A    between atoms: C_26  and  O_27
REMARK                            x       y       z     vdW  Elec       q    Type
REMARK                         _______ _______ _______ _____ _____    ______ ____
ROOT
ATOM      1  C   UNL     1     -11.676  12.529  67.236  0.00  0.00    +0.174 A 
ATOM      2  C   UNL     1     -12.135  13.019  66.020  0.00  0.00    +0.173 A 
ATOM      3  C   UNL     1     -12.096  14.383  65.830  0.00  0.00    +0.044 A 
ATOM      4  C   UNL     1     -11.042  15.071  66.409  0.00  0.00    +0.056 A 
ATOM      5  C   UNL     1     -10.494  14.597  67.586  0.00  0.00    +0.090 A 
ATOM      6  N   UNL     1      -9.506  15.325  68.128  0.00  0.00    -0.213 NA
ATOM      7  C   UNL     1      -9.220  16.589  67.750  0.00  0.00    +0.221 A 
ATOM      8  N   UNL     1      -9.940  17.084  66.714  0.00  0.00    -0.195 NA
ATOM      9  N   UNL     1      -8.260  17.382  68.460  0.00  0.00    -0.275 N 
ATOM     10  C   UNL     1      -7.051  16.768  69.001  0.00  0.00    +0.115 C 
ATOM     11  C   UNL     1      -5.802  17.502  68.536  0.00  0.00    +0.115 C 
ATOM     12  N   UNL     1      -5.992  17.870  67.135  0.00  0.00    -0.270 N 
ATOM     13  C   UNL     1      -4.823  18.126  66.347  0.00  0.00    +0.284 C 
ATOM     14  O   UNL     1      -4.657  17.557  65.227  0.00  0.00    -0.267 OA
ATOM     15  C   UNL     1      -7.151  18.703  66.829  0.00  0.00    +0.115 C 
ATOM     16  C   UNL     1      -8.107  18.765  68.016  0.00  0.00    +0.115 C 
ATOM     17  C   UNL     1     -10.537  16.245  65.867  0.00  0.00    +0.174 A 
ATOM     18  N   UNL     1     -10.918  16.620  64.559  0.00  0.00    -0.107 NA
ATOM     19  C   UNL     1     -10.724  13.267  67.910  0.00  0.00    +0.059 A 
ENDROOT
BRANCH  13  20
ATOM     20  C   UNL     1      -4.242  19.465  66.506  0.00  0.00    +0.199 A 
ATOM     21  O   UNL     1      -3.499  19.843  67.530  0.00  0.00    -0.446 OA
ATOM     22  C   UNL     1      -2.843  20.932  67.246  0.00  0.00    +0.180 A 
ATOM     23  C   UNL     1      -3.348  21.445  66.070  0.00  0.00    +0.044 A 
ATOM     24  C   UNL     1      -4.243  20.510  65.593  0.00  0.00    +0.045 A 
ENDBRANCH  13  20
BRANCH   1  26
ATOM     25  C   UNL     1     -11.009  10.201  67.658  0.00  0.00    +0.253 C 
ATOM     26  O   UNL     1     -11.981  11.214  67.530  0.00  0.00    -0.468 OA
ENDBRANCH   1  26
BRANCH   2  27
ATOM     27  O   UNL     1     -12.634  12.134  65.060  0.00  0.00    -0.468 OA
ATOM     28  C   UNL     1     -12.160  12.223  63.723  0.00  0.00    +0.253 C 
ENDBRANCH   2  27
TORSDOF 3
ENDMDL
MODEL 3
REMARK VINA RESULT:      -7.0      2.486      4.061
REMARK  Name = 
REMARK  3 active torsions:
REMARK  status: ('A' for Active; 'I' for Inactive)
REMARK    1  A    between atoms: O_2  and  C_3
REMARK    2  A    between atoms: C_12  and  C_14
REMARK    3  A    between atoms: C_26  and  O_27
REMARK                            x       y       z     vdW  Elec       q    Type
REMARK                         _______ _______ _______ _____ _____    ______ ____
ROOT
ATOM      1  C   UNL     1     -12.409   9.920  71.326  0.00  0.00    +0.174 A 
ATOM      2  C   UNL     1     -11.320   9.188  70.873  0.00  0.00    +0.173 A 
ATOM      3  C   UNL     1     -10.817   9.502  69.630  0.00  0.00    +0.044 A 
ATOM      4  C   UNL     1     -10.861  10.834  69.250  0.00  0.00    +0.056 A 
ATOM      5  C   UNL     1     -11.883  11.635  69.722  0.00  0.00    +0.090 A 
ATOM      6  N   UNL     1     -11.905  12.904  69.287  0.00  0.00    -0.213 NA
ATOM      7  C   UNL     1     -11.174  13.345  68.240  0.00  0.00    +0.221 A 
ATOM      8  N   UNL     1     -10.331  12.447  67.676  0.00  0.00    -0.195 NA
ATOM      9  N   UNL     1     -11.344  14.668  67.715  0.00  0.00    -0.275 N 
ATOM     10  C   UNL     1     -11.606  15.790  68.611  0.00  0.00    +0.115 C 
ATOM     11  C   UNL     1     -10.617  16.923  68.382  0.00  0.00    +0.115 C 
ATOM     12  N   UNL     1      -9.301  16.333  68.153  0.00  0.00    -0.270 N 
ATOM     13  C   UNL     1      -8.150  17.152  68.389  0.00  0.00    +0.284 C 
ATOM     14  O   UNL     1      -7.197  16.743  69.118  0.00  0.00    -0.267 OA
ATOM     15  C   UNL     1      -9.189  15.397  67.039  0.00  0.00    +0.115 C 
ATOM     16  C   UNL     1     -10.567  14.996  66.522  0.00  0.00    +0.115 C 
ATOM     17  C   UNL     1      -9.932  11.386  68.380  0.00  0.00    +0.174 A 
ATOM     18  N   UNL     1      -8.759  10.661  68.070  0.00  0.00    -0.107 NA
ATOM     19  C   UNL     1     -12.562  11.208  70.854  0.00  0.00    +0.059 A 
ENDROOT
BRANCH  13  20
ATOM     20  C   UNL     1      -7.804  18.073  67.299  0.00  0.00    +0.199 A 
ATOM     21  O   UNL     1      -8.318  19.280  67.147  0.00  0.00    -0.446 OA
ATOM     22  C   UNL     1      -7.592  19.990  66.329  0.00  0.00    +0.180 A 
ATOM     23  C   UNL     1      -6.686  19.149  65.718  0.00  0.00    +0.044 A 
ATOM     24  C   UNL     1      -6.817  17.923  66.334  0.00  0.00    +0.045 A 
ENDBRANCH  13  20
BRANCH   1  26
ATOM     25  C   UNL     1     -14.232   8.611  72.331  0.00  0.00    +0.253 C 
ATOM     26  O   UNL     1     -13.081   9.419  72.426  0.00  0.00    -0.468 OA
ENDBRANCH   1  26
BRANCH   2  27
ATOM     27  O   UNL     1     -10.797   8.162  71.666  0.00  0.00    -0.468 OA
ATOM     28  C   UNL     1      -9.588   8.386  72.380  0.00  0.00    +0.253 C 
ENDBRANCH   2  27
TORSDOF 3
ENDMDL
MODEL 4
REMARK VINA RESULT:      -6.9      3.073      5.186
REMARK  Name = 
REMARK  3 active torsions:
REMARK  status: ('A' for Active; 'I' for Inactive)
REMARK    1  A    between atoms: O_2  and  C_3
REMARK    2  A    between atoms: C_12  and  C_14
REMARK    3  A    between atoms: C_26  and  O_27
REMARK                            x       y       z     vdW  Elec       q    Type
REMARK                         _______ _______ _______ _____ _____    ______ ____
ROOT
ATOM      1  C   UNL     1     -11.290   8.394  70.567  0.00  0.00    +0.174 A 
ATOM      2  C   UNL     1     -10.467   8.023  69.511  0.00  0.00    +0.173 A 
ATOM      3  C   UNL     1     -10.556   8.756  68.349  0.00  0.00    +0.044 A 
ATOM      4  C   UNL     1     -10.816  10.111  68.476  0.00  0.00    +0.056 A 
ATOM      5  C   UNL     1     -11.573  10.554  69.543  0.00  0.00    +0.090 A 
ATOM      6  N   UNL     1     -11.833  11.869  69.595  0.00  0.00    -0.213 NA
ATOM      7  C   UNL     1     -11.639  12.707  68.554  0.00  0.00    +0.221 A 
ATOM      8  N   UNL     1     -11.078  12.167  67.445  0.00  0.00    -0.195 NA
ATOM      9  N   UNL     1     -12.073  14.072  68.602  0.00  0.00    -0.275 N 
ATOM     10  C   UNL     1     -11.977  14.835  69.843  0.00  0.00    +0.115 C 
ATOM     11  C   UNL     1     -11.230  16.142  69.632  0.00  0.00    +0.115 C 
ATOM     12  N   UNL     1     -10.113  15.883  68.728  0.00  0.00    -0.270 N 
ATOM     13  C   UNL     1      -9.008  16.795  68.750  0.00  0.00    +0.284 C 
ATOM     14  O   UNL     1      -7.819  16.373  68.872  0.00  0.00    -0.267 OA
ATOM     15  C   UNL     1     -10.447  15.331  67.419  0.00  0.00    +0.115 C 
ATOM     16  C   UNL     1     -11.894  14.853  67.381  0.00  0.00    +0.115 C 
ATOM     17  C   UNL     1     -10.372  11.040  67.546  0.00  0.00    +0.174 A 
ATOM     18  N   UNL     1      -9.412  10.650  66.584  0.00  0.00    -0.107 NA
ATOM     19  C   UNL     1     -11.685   9.714  70.643  0.00  0.00    +0.059 A 
ENDROOT
BRANCH  13  20
ATOM     20  C   UNL     1      -9.201  18.029  67.980  0.00  0.00    +0.199 A 
ATOM     21  O   UNL     1      -8.923  18.163  66.696  0.00  0.00    -0.446 OA
ATOM     22  C   UNL     1      -9.508  19.219  66.206  0.00  0.00    +0.180 A 
ATOM     23  C   UNL     1     -10.005  19.963  67.255  0.00  0.00    +0.044 A 
ATOM     24  C   UNL     1      -9.811  19.206  68.392  0.00  0.00    +0.045 A 
ENDBRANCH  13  20
BRANCH   1  26
ATOM     25  C   UNL     1     -10.813   7.690  72.874  0.00  0.00    +0.253 C 
ATOM     26  O   UNL     1     -11.405   7.494  71.610  0.00  0.00    -0.468 OA
ENDBRANCH   1  26
BRANCH   2  27
ATOM     27  O   UNL     1      -9.612   6.926  69.652  0.00  0.00    -0.468 OA
ATOM     28  C   UNL     1      -8.267   7.144  70.060  0.00  0.00    +0.253 C 
ENDBRANCH   2  27
TORSDOF 3
ENDMDL
MODEL 5
REMARK VINA RESULT:      -6.8      1.676      2.119
REMARK  Name = 
REMARK  3 active torsions:
REMARK  status: ('A' for Active; 'I' for Inactive)
REMARK    1  A    between atoms: O_2  and  C_3
REMARK    2  A    between atoms: C_12  and  C_14
REMARK    3  A    between atoms: C_26  and  O_27
REMARK                            x       y       z     vdW  Elec       q    Type
REMARK                         _______ _______ _______ _____ _____    ______ ____
ROOT
ATOM      1  C   UNL     1     -11.973  13.971  69.553  0.00  0.00    +0.174 A 
ATOM      2  C   UNL     1     -11.946  13.353  68.310  0.00  0.00    +0.173 A 
ATOM      3  C   UNL     1     -11.827  14.161  67.202  0.00  0.00    +0.044 A 
ATOM      4  C   UNL     1     -11.056  15.304  67.334  0.00  0.00    +0.056 A 
ATOM      5  C   UNL     1     -10.986  15.930  68.563  0.00  0.00    +0.090 A 
ATOM      6  N   UNL     1     -10.261  17.058  68.626  0.00  0.00    -0.213 NA
ATOM      7  C   UNL     1      -9.844  17.736  67.535  0.00  0.00    +0.221 A 
ATOM      8  N   UNL     1     -10.125  17.174  66.335  0.00  0.00    -0.195 NA
ATOM      9  N   UNL     1      -9.206  19.015  67.648  0.00  0.00    -0.275 N 
ATOM     10  C   UNL     1      -8.289  19.287  68.751  0.00  0.00    +0.115 C 
ATOM     11  C   UNL     1      -6.950  19.799  68.241  0.00  0.00    +0.115 C 
ATOM     12  N   UNL     1      -6.605  19.043  67.041  0.00  0.00    -0.270 N 
ATOM     13  C   UNL     1      -5.226  18.988  66.658  0.00  0.00    +0.284 C 
ATOM     14  O   UNL     1      -4.662  17.879  66.412  0.00  0.00    -0.267 OA
ATOM     15  C   UNL     1      -7.562  19.093  65.939  0.00  0.00    +0.115 C 
ATOM     16  C   UNL     1      -8.888  19.693  66.395  0.00  0.00    +0.115 C 
ATOM     17  C   UNL     1     -10.375  15.866  66.262  0.00  0.00    +0.174 A 
ATOM     18  N   UNL     1     -10.242  15.126  65.065  0.00  0.00    -0.107 NA
ATOM     19  C   UNL     1     -11.331  15.186  69.683  0.00  0.00    +0.059 A 
ENDROOT
BRANCH  13  20
ATOM     20  C   UNL     1      -4.732  20.161  65.927  0.00  0.00    +0.199 A 
ATOM     21  O   UNL     1      -4.263  21.256  66.496  0.00  0.00    -0.446 OA
ATOM     22  C   UNL     1      -3.586  21.967  65.640  0.00  0.00    +0.180 A 
ATOM     23  C   UNL     1      -3.809  21.452  64.380  0.00  0.00    +0.044 A 
ATOM     24  C   UNL     1      -4.542  20.297  64.558  0.00  0.00    +0.045 A 
ENDBRANCH  13  20
BRANCH   1  26
ATOM     25  C   UNL     1     -13.210  13.672  71.657  0.00  0.00    +0.253 C 
ATOM     26  O   UNL     1     -12.378  13.197  70.624  0.00  0.00    -0.468 OA
ENDBRANCH   1  26
BRANCH   2  27
ATOM     27  O   UNL     1     -12.063  11.962  68.226  0.00  0.00    -0.468 OA
ATOM     28  C   UNL     1     -10.972  11.205  67.717  0.00  0.00    +0.253 C 
ENDBRANCH   2  27
TORSDOF 3
ENDMDL
MODEL 6
REMARK VINA RESULT:      -6.7      3.427      5.612
REMARK  Name = 
REMARK  3 active torsions:
REMARK  status: ('A' for Active; 'I' for Inactive)
REMARK    1  A    between atoms: O_2  and  C_3
REMARK    2  A    between atoms: C_12  and  C_14
REMARK    3  A    between atoms: C_26  and  O_27
REMARK                            x       y       z     vdW  Elec       q    Type
REMARK                         _______ _______ _______ _____ _____    ______ ____
ROOT
ATOM      1  C   UNL     1     -10.537   8.031  69.468  0.00  0.00    +0.174 A 
ATOM      2  C   UNL     1     -10.105   7.795  68.169  0.00  0.00    +0.173 A 
ATOM      3  C   UNL     1     -10.568   8.639  67.184  0.00  0.00    +0.044 A 
ATOM      4  C   UNL     1     -10.769   9.964  67.531  0.00  0.00    +0.056 A 
ATOM      5  C   UNL     1     -11.134  10.273  68.827  0.00  0.00    +0.090 A 
ATOM      6  N   UNL     1     -11.360  11.567  69.099  0.00  0.00    -0.213 NA
ATOM      7  C   UNL     1     -11.515  12.512  68.147  0.00  0.00    +0.221 A 
ATOM      8  N   UNL     1     -11.349  12.105  66.865  0.00  0.00    -0.195 NA
ATOM      9  N   UNL     1     -11.906  13.850  68.478  0.00  0.00    -0.275 N 
ATOM     10  C   UNL     1     -11.408  14.486  69.694  0.00  0.00    +0.115 C 
ATOM     11  C   UNL     1     -10.768  15.832  69.391  0.00  0.00    +0.115 C 
ATOM     12  N   UNL     1     -10.008  15.701  68.150  0.00  0.00    -0.270 N 
ATOM     13  C   UNL     1      -8.955  16.642  67.908  0.00  0.00    +0.284 C 
ATOM     14  O   UNL     1      -7.792  16.249  67.591  0.00  0.00    -0.267 OA
ATOM     15  C   UNL     1     -10.753  15.274  66.970  0.00  0.00    +0.115 C 
ATOM     16  C   UNL     1     -12.135  14.756  67.355  0.00  0.00    +0.115 C 
ATOM     17  C   UNL     1     -10.651  10.997  66.611  0.00  0.00    +0.174 A 
ATOM     18  N   UNL     1     -10.060  10.737  65.353  0.00  0.00    -0.107 NA
ATOM     19  C   UNL     1     -10.882   9.324  69.808  0.00  0.00    +0.059 A 
ENDROOT
BRANCH  13  20
ATOM     20  C   UNL     1      -9.386  17.941  67.378  0.00  0.00    +0.199 A 
ATOM     21  O   UNL     1      -9.621  18.189  66.103  0.00  0.00    -0.446 OA
ATOM     22  C   UNL     1     -10.312  19.285  65.967  0.00  0.00    +0.180 A 
ATOM     23  C   UNL     1     -10.338  19.932  67.184  0.00  0.00    +0.044 A 
ATOM     24  C   UNL     1      -9.747  19.077  68.090  0.00  0.00    +0.045 A 
ENDBRANCH  13  20
BRANCH   1  26
ATOM     25  C   UNL     1     -11.324   6.197  70.903  0.00  0.00    +0.253 C 
ATOM     26  O   UNL     1     -10.308   7.028  70.390  0.00  0.00    -0.468 OA
ENDBRANCH   1  26
BRANCH   2  27
ATOM     27  O   UNL     1      -9.254   6.718  67.907  0.00  0.00    -0.468 OA
ATOM     28  C   UNL     1      -9.769   5.575  67.236  0.00  0.00    +0.253 C 
ENDBRANCH   2  27
TORSDOF 3
ENDMDL
MODEL 7
REMARK VINA RESULT:      -6.5      3.443      9.401
REMARK  Name = 
REMARK  3 active torsions:
REMARK  status: ('A' for Active; 'I' for Inactive)
REMARK    1  A    between atoms: O_2  and  C_3
REMARK    2  A    between atoms: C_12  and  C_14
REMARK    3  A    between atoms: C_26  and  O_27
REMARK                            x       y       z     vdW  Elec       q    Type
REMARK                         _______ _______ _______ _____ _____    ______ ____
ROOT
ATOM      1  C   UNL     1      -8.605  16.915  66.079  0.00  0.00    +0.174 A 
ATOM      2  C   UNL     1      -9.940  17.092  65.740  0.00  0.00    +0.173 A 
ATOM      3  C   UNL     1     -10.657  15.974  65.378  0.00  0.00    +0.044 A 
ATOM      4  C   UNL     1     -10.341  14.787  66.018  0.00  0.00    +0.056 A 
ATOM      5  C   UNL     1      -9.043  14.576  66.443  0.00  0.00    +0.090 A 
ATOM      6  N   UNL     1      -8.781  13.392  67.017  0.00  0.00    -0.213 NA
ATOM      7  C   UNL     1      -9.615  12.333  66.953  0.00  0.00    +0.221 A 
ATOM      8  N   UNL     1     -10.803  12.540  66.335  0.00  0.00    -0.195 NA
ATOM      9  N   UNL     1      -9.227  11.044  67.448  0.00  0.00    -0.275 N 
ATOM     10  C   UNL     1      -8.415  10.931  68.656  0.00  0.00    +0.115 C 
ATOM     11  C   UNL     1      -9.062  10.000  69.670  0.00  0.00    +0.115 C 
ATOM     12  N   UNL     1     -10.501  10.247  69.656  0.00  0.00    -0.270 N 
ATOM     13  C   UNL     1     -11.256   9.870  70.814  0.00  0.00    +0.284 C 
ATOM     14  O   UNL     1     -12.043  10.690  71.373  0.00  0.00    -0.267 OA
ATOM     15  C   UNL     1     -11.182  10.072  68.377  0.00  0.00    +0.115 C 
ATOM     16  C   UNL     1     -10.177   9.956  67.235  0.00  0.00    +0.115 C 
ATOM     17  C   UNL     1     -11.277  13.782  66.219  0.00  0.00    +0.174 A 
ATOM     18  N   UNL     1     -12.646  14.061  66.006  0.00  0.00    -0.107 NA
ATOM     19  C   UNL     1      -8.227  15.689  66.591  0.00  0.00    +0.059 A 
ENDROOT
BRANCH  13  20
ATOM     20  C   UNL     1     -11.612   8.448  70.892  0.00  0.00    +0.199 A 
ATOM     21  O   UNL     1     -10.895   7.466  70.377  0.00  0.00    -0.446 OA
ATOM     22  C   UNL     1     -11.247   6.320  70.888  0.00  0.00    +0.180 A 
ATOM     23  C   UNL     1     -12.414   6.507  71.599  0.00  0.00    +0.044 A 
ATOM     24  C   UNL     1     -12.652   7.865  71.605  0.00  0.00    +0.045 A 
ENDBRANCH  13  20
BRANCH   1  26
ATOM     25  C   UNL     1      -6.513  18.135  65.656  0.00  0.00    +0.253 C 
ATOM     26  O   UNL     1      -7.827  18.055  66.159  0.00  0.00    -0.468 OA
ENDBRANCH   1  26
BRANCH   2  27
ATOM     27  O   UNL     1     -10.493  18.377  65.753  0.00  0.00    -0.468 OA
ATOM     28  C   UNL     1     -10.725  19.019  67.000  0.00  0.00    +0.253 C 
ENDBRANCH   2  27
TORSDOF 3
ENDMDL
MODEL 8
REMARK VINA RESULT:      -6.4      2.177      9.356
REMARK  Name = 
REMARK  3 active torsions:
REMARK  status: ('A' for Active; 'I' for Inactive)
REMARK    1  A    between atoms: O_2  and  C_3
REMARK    2  A    between atoms: C_12  and  C_14
REMARK    3  A    between atoms: C_26  and  O_27
REMARK                            x       y       z     vdW  Elec       q    Type
REMARK                         _______ _______ _______ _____ _____    ______ ____
ROOT
ATOM      1  C   UNL     1      -4.666  20.785  63.975  0.00  0.00    +0.174 A 
ATOM      2  C   UNL     1      -4.085  21.241  65.151  0.00  0.00    +0.173 A 
ATOM      3  C   UNL     1      -4.925  21.528  66.204  0.00  0.00    +0.044 A 
ATOM      4  C   UNL     1      -6.052  20.736  66.346  0.00  0.00    +0.056 A 
ATOM      5  C   UNL     1      -6.640  20.194  65.219  0.00  0.00    +0.090 A 
ATOM      6  N   UNL     1      -7.755  19.472  65.407  0.00  0.00    -0.213 NA
ATOM      7  C   UNL     1      -8.461  19.479  66.559  0.00  0.00    +0.221 A 
ATOM      8  N   UNL     1      -7.939  20.203  67.578  0.00  0.00    -0.195 NA
ATOM      9  N   UNL     1      -9.726  18.814  66.664  0.00  0.00    -0.275 N 
ATOM     10  C   UNL     1      -9.953  17.544  65.981  0.00  0.00    +0.115 C 
ATOM     11  C   UNL     1     -10.461  16.482  66.945  0.00  0.00    +0.115 C 
ATOM     12  N   UNL     1      -9.737  16.632  68.204  0.00  0.00    -0.270 N 
ATOM     13  C   UNL     1      -9.674  15.498  69.078  0.00  0.00    +0.284 C 
ATOM     14  O   UNL     1      -8.566  15.096  69.543  0.00  0.00    -0.267 OA
ATOM     15  C   UNL     1      -9.833  17.930  68.864  0.00  0.00    +0.115 C 
ATOM     16  C   UNL     1     -10.438  18.973  67.929  0.00  0.00    +0.115 C 
ATOM     17  C   UNL     1      -6.637  20.494  67.581  0.00  0.00    +0.174 A 
ATOM     18  N   UNL     1      -5.933  20.838  68.757  0.00  0.00    -0.107 NA
ATOM     19  C   UNL     1      -5.868  20.112  64.069  0.00  0.00    +0.059 A 
ENDROOT
BRANCH  13  20
ATOM     20  C   UNL     1     -10.862  15.287  69.914  0.00  0.00    +0.199 A 
ATOM     21  O   UNL     1     -11.132  15.961  71.018  0.00  0.00    -0.446 OA
ATOM     22  C   UNL     1     -12.384  15.821  71.349  0.00  0.00    +0.180 A 
ATOM     23  C   UNL     1     -12.926  14.818  70.573  0.00  0.00    +0.044 A 
ATOM     24  C   UNL     1     -11.957  14.473  69.654  0.00  0.00    +0.045 A 
ENDBRANCH  13  20
BRANCH   1  26
ATOM     25  C   UNL     1      -3.944  21.749  61.832  0.00  0.00    +0.253 C 
ATOM     26  O   UNL     1      -3.865  20.777  62.849  0.00  0.00    -0.468 OA
ENDBRANCH   1  26
BRANCH   2  27
ATOM     27  O   UNL     1      -2.699  21.415  65.217  0.00  0.00    -0.468 OA
ATOM     28  C   UNL     1      -2.170  22.731  65.321  0.00  0.00    +0.253 C 
ENDBRANCH   2  27
TORSDOF 3
ENDMDL
MODEL 9
REMARK VINA RESULT:      -6.4      2.400      9.426
REMARK  Name = 
REMARK  3 active torsions:
REMARK  status: ('A' for Active; 'I' for Inactive)
REMARK    1  A    between atoms: O_2  and  C_3
REMARK    2  A    between atoms: C_12  and  C_14
REMARK    3  A    between atoms: C_26  and  O_27
REMARK                            x       y       z     vdW  Elec       q    Type
REMARK                         _______ _______ _______ _____ _____    ______ ____
ROOT
ATOM      1  C   UNL     1      -4.863  20.818  62.554  0.00  0.00    +0.174 A 
ATOM      2  C   UNL     1      -3.978  19.758  62.703  0.00  0.00    +0.173 A 
ATOM      3  C   UNL     1      -3.873  19.190  63.953  0.00  0.00    +0.044 A 
ATOM      4  C   UNL     1      -5.025  19.138  64.721  0.00  0.00    +0.056 A 
ATOM      5  C   UNL     1      -5.978  20.127  64.572  0.00  0.00    +0.090 A 
ATOM      6  N   UNL     1      -7.053  20.054  65.372  0.00  0.00    -0.213 NA
ATOM      7  C   UNL     1      -7.118  19.259  66.461  0.00  0.00    +0.221 A 
ATOM      8  N   UNL     1      -6.053  18.450  66.678  0.00  0.00    -0.195 NA
ATOM      9  N   UNL     1      -8.223  19.327  67.372  0.00  0.00    -0.275 N 
ATOM     10  C   UNL     1      -9.577  19.555  66.875  0.00  0.00    +0.115 C 
ATOM     11  C   UNL     1     -10.538  18.491  67.381  0.00  0.00    +0.115 C 
ATOM     12  N   UNL     1      -9.846  17.205  67.347  0.00  0.00    -0.270 N 
ATOM     13  C   UNL     1     -10.644  16.016  67.308  0.00  0.00    +0.284 C 
ATOM     14  O   UNL     1     -10.434  15.119  66.437  0.00  0.00    -0.267 OA
ATOM     15  C   UNL     1      -8.610  17.107  68.117  0.00  0.00    +0.115 C 
ATOM     16  C   UNL     1      -8.134  18.486  68.563  0.00  0.00    +0.115 C 
ATOM     17  C   UNL     1      -5.241  18.144  65.666  0.00  0.00    +0.174 A 
ATOM     18  N   UNL     1      -4.402  17.006  65.674  0.00  0.00    -0.107 NA
ATOM     19  C   UNL     1      -5.951  20.874  63.403  0.00  0.00    +0.059 A 
ENDROOT
BRANCH  13  20
ATOM     20  C   UNL     1     -11.170  15.574  68.605  0.00  0.00    +0.199 A 
ATOM     21  O   UNL     1     -11.841  16.343  69.444  0.00  0.00    -0.446 OA
ATOM     22  C   UNL     1     -12.475  15.621  70.324  0.00  0.00    +0.180 A 
ATOM     23  C   UNL     1     -12.022  14.322  70.224  0.00  0.00    +0.044 A 
ATOM     24  C   UNL     1     -11.187  14.287  69.126  0.00  0.00    +0.045 A 
ENDBRANCH  13  20
BRANCH   1  26
ATOM     25  C   UNL     1      -3.848  22.629  61.237  0.00  0.00    +0.253 C 
ATOM     26  O   UNL     1      -4.754  21.560  61.394  0.00  0.00    -0.468 OA
ENDBRANCH   1  26
BRANCH   2  27
ATOM     27  O   UNL     1      -3.221  19.330  61.609  0.00  0.00    -0.468 OA
ATOM     28  C   UNL     1      -3.659  18.201  60.862  0.00  0.00    +0.253 C 
ENDBRANCH   2  27
TORSDOF 3
ENDMDL
