MODEL 1
REMARK VINA RESULT:      -6.3      0.000      0.000
REMARK  Name = 
REMARK  10 active torsions:
REMARK  status: ('A' for Active; 'I' for Inactive)
REMARK    1  A    between atoms: O_2  and  C_3
REMARK    2  A    between atoms: C_3  and  C_4
REMARK    3  A    between atoms: C_4  and  O_5
REMARK    4  A    between atoms: O_5  and  C_6
REMARK    5  A    between atoms: C_6  and  C_8
REMARK    6  A    between atoms: C_14  and  C_15
REMARK    7  A    between atoms: C_15  and  O_17
REMARK    8  A    between atoms: O_17  and  C_18
REMARK    9  A    between atoms: C_21  and  C_22
REMARK   10  A    between atoms: C_26  and  N_27
REMARK                            x       y       z     vdW  Elec       q    Type
REMARK                         _______ _______ _______ _____ _____    ______ ____
ROOT
ATOM      1  C   UNL     1     -11.431  13.630  69.506  0.00  0.00    +0.073 C 
ATOM      2  C   UNL     1     -11.821  13.587  67.938  0.00  0.00    +0.082 C 
ATOM      3  C   UNL     1     -10.862  12.342  67.582  0.00  0.00    +0.073 C 
ATOM      4  C   UNL     1     -10.734  11.390  68.457  0.00  0.00    +0.051 C 
ATOM      5  C   UNL     1      -9.784  10.288  68.105  0.00  0.00    +0.049 C 
ATOM      6  N   UNL     1     -11.546  11.312  69.637  0.00  0.00    -0.221 NA
ATOM      7  C   UNL     1     -11.999  12.583  70.103  0.00  0.00    +0.051 C 
ATOM      8  C   UNL     1     -12.915  12.644  71.252  0.00  0.00    +0.049 C 
ENDROOT
BRANCH   2   9
ATOM      9  C   UNL     1     -10.692  14.681  67.563  0.00  0.00    -0.008 A 
ATOM     10  C   UNL     1      -9.383  14.223  67.690  0.00  0.00    +0.072 A 
ATOM     11  C   UNL     1      -8.355  14.966  67.173  0.00  0.00    +0.290 A 
ATOM     12  C   UNL     1      -8.667  15.977  66.292  0.00  0.00    +0.075 A 
ATOM     13  C   UNL     1      -9.988  16.255  65.962  0.00  0.00    +0.006 A 
ATOM     14  C   UNL     1     -10.904  15.270  66.317  0.00  0.00    -0.003 A 
BRANCH  11  15
ATOM     15  N   UNL     1      -7.004  14.630  67.406  0.00  0.00    +0.081 N 
ATOM     16  O   UNL     1      -6.148  15.493  68.052  0.00  0.00    -0.576 OA
ATOM     17  O   UNL     1      -6.637  13.456  67.215  0.00  0.00    +0.041 OA
ENDBRANCH  11  15
ENDBRANCH   2   9
BRANCH   1  18
ATOM     18  C   UNL     1     -11.676  14.916  70.171  0.00  0.00    +0.339 C 
ATOM     19  O   UNL     1     -12.389  15.809  69.624  0.00  0.00    -0.245 OA
BRANCH  18  20
ATOM     20  O   UNL     1     -11.416  15.088  71.521  0.00  0.00    -0.443 OA
BRANCH  20  21
ATOM     21  C   UNL     1     -11.960  16.110  72.314  0.00  0.00    +0.241 C 
BRANCH  21  22
ATOM     22  C   UNL     1     -13.188  15.588  73.029  0.00  0.00    +0.190 C 
BRANCH  22  24
ATOM     23  C   UNL     1     -15.020  15.177  71.671  0.00  0.00    +0.174 C 
ATOM     24  O   UNL     1     -14.364  16.066  72.489  0.00  0.00    -0.347 OA
ENDBRANCH  22  24
ENDBRANCH  21  22
ENDBRANCH  20  21
ENDBRANCH  18  20
ENDBRANCH   1  18
BRANCH   3  25
ATOM     25  C   UNL     1     -11.047  11.930  66.177  0.00  0.00    +0.339 C 
ATOM     26  O   UNL     1     -12.201  12.071  65.669  0.00  0.00    -0.245 OA
BRANCH  25  27
ATOM     27  O   UNL     1     -10.008  11.890  65.258  0.00  0.00    -0.449 OA
BRANCH  27  28
ATOM     28  C   UNL     1      -9.775  10.792  64.377  0.00  0.00    +0.169 C 
ATOM     29  C   UNL     1      -8.384  10.230  64.646  0.00  0.00    +0.047 C 
ATOM     30  C   UNL     1      -9.726  11.325  62.951  0.00  0.00    +0.047 C 
ENDBRANCH  27  28
ENDBRANCH  25  27
ENDBRANCH   3  25
TORSDOF 10
ENDMDL
MODEL 2
REMARK VINA RESULT:      -6.2      2.602      5.738
REMARK  Name = 
REMARK  10 active torsions:
REMARK  status: ('A' for Active; 'I' for Inactive)
REMARK    1  A    between atoms: O_2  and  C_3
REMARK    2  A    between atoms: C_3  and  C_4
REMARK    3  A    between atoms: C_4  and  O_5
REMARK    4  A    between atoms: O_5  and  C_6
REMARK    5  A    between atoms: C_6  and  C_8
REMARK    6  A    between atoms: C_14  and  C_15
REMARK    7  A    between atoms: C_15  and  O_17
REMARK    8  A    between atoms: O_17  and  C_18
REMARK    9  A    between atoms: C_21  and  C_22
REMARK   10  A    between atoms: C_26  and  N_27
REMARK                            x       y       z     vdW  Elec       q    Type
REMARK                         _______ _______ _______ _____ _____    ______ ____
ROOT
ATOM      1  C   UNL     1     -11.481  12.487  65.963  0.00  0.00    +0.073 C 
ATOM      2  C   UNL     1     -10.261  12.656  67.007  0.00  0.00    +0.082 C 
ATOM      3  C   UNL     1     -10.208  11.101  67.425  0.00  0.00    +0.073 C 
ATOM      4  C   UNL     1     -10.431  10.206  66.509  0.00  0.00    +0.051 C 
ATOM      5  C   UNL     1     -10.432   8.779  66.961  0.00  0.00    +0.049 C 
ATOM      6  N   UNL     1     -10.539  10.538  65.117  0.00  0.00    -0.221 NA
ATOM      7  C   UNL     1     -11.018  11.861  64.881  0.00  0.00    +0.051 C 
ATOM      8  C   UNL     1     -11.092  12.365  63.502  0.00  0.00    +0.049 C 
ENDROOT
BRANCH   2   9
ATOM      9  C   UNL     1     -11.264  13.040  68.215  0.00  0.00    -0.008 A 
ATOM     10  C   UNL     1     -11.616  11.969  69.031  0.00  0.00    +0.072 A 
ATOM     11  C   UNL     1     -12.257  12.209  70.219  0.00  0.00    +0.290 A 
ATOM     12  C   UNL     1     -12.261  13.498  70.703  0.00  0.00    +0.075 A 
ATOM     13  C   UNL     1     -11.661  14.530  69.992  0.00  0.00    +0.006 A 
ATOM     14  C   UNL     1     -10.813  14.125  68.967  0.00  0.00    -0.003 A 
BRANCH  11  15
ATOM     15  N   UNL     1     -12.773  11.159  71.010  0.00  0.00    +0.081 N 
ATOM     16  O   UNL     1     -12.451   9.845  70.761  0.00  0.00    -0.576 OA
ATOM     17  O   UNL     1     -13.357  11.441  72.072  0.00  0.00    +0.041 OA
ENDBRANCH  11  15
ENDBRANCH   2   9
BRANCH   1  18
ATOM     18  C   UNL     1     -12.229  13.718  65.678  0.00  0.00    +0.339 C 
ATOM     19  O   UNL     1     -13.479  13.688  65.464  0.00  0.00    -0.245 OA
BRANCH  18  20
ATOM     20  O   UNL     1     -11.687  14.966  65.938  0.00  0.00    -0.443 OA
BRANCH  20  21
ATOM     21  C   UNL     1     -10.793  15.639  65.092  0.00  0.00    +0.241 C 
BRANCH  21  22
ATOM     22  C   UNL     1      -9.850  16.479  65.926  0.00  0.00    +0.190 C 
BRANCH  22  24
ATOM     23  C   UNL     1     -10.335  18.607  66.703  0.00  0.00    +0.174 C 
ATOM     24  O   UNL     1      -9.941  17.826  65.644  0.00  0.00    -0.347 OA
ENDBRANCH  22  24
ENDBRANCH  21  22
ENDBRANCH  20  21
ENDBRANCH  18  20
ENDBRANCH   1  18
BRANCH   3  25
ATOM     25  C   UNL     1      -9.075  10.846  68.337  0.00  0.00    +0.339 C 
ATOM     26  O   UNL     1      -8.081  11.633  68.275  0.00  0.00    -0.245 OA
BRANCH  25  27
ATOM     27  O   UNL     1      -9.214  10.177  69.545  0.00  0.00    -0.449 OA
BRANCH  27  28
ATOM     28  C   UNL     1      -8.152   9.470  70.182  0.00  0.00    +0.169 C 
ATOM     29  C   UNL     1      -7.649   8.382  69.240  0.00  0.00    +0.047 C 
ATOM     30  C   UNL     1      -8.722   8.730  71.386  0.00  0.00    +0.047 C 
ENDBRANCH  27  28
ENDBRANCH  25  27
ENDBRANCH   3  25
TORSDOF 10
ENDMDL
MODEL 3
REMARK VINA RESULT:      -6.2      2.051      2.784
REMARK  Name = 
REMARK  10 active torsions:
REMARK  status: ('A' for Active; 'I' for Inactive)
REMARK    1  A    between atoms: O_2  and  C_3
REMARK    2  A    between atoms: C_3  and  C_4
REMARK    3  A    between atoms: C_4  and  O_5
REMARK    4  A    between atoms: O_5  and  C_6
REMARK    5  A    between atoms: C_6  and  C_8
REMARK    6  A    between atoms: C_14  and  C_15
REMARK    7  A    between atoms: C_15  and  O_17
REMARK    8  A    between atoms: O_17  and  C_18
REMARK    9  A    between atoms: C_21  and  C_22
REMARK   10  A    between atoms: C_26  and  N_27
REMARK                            x       y       z     vdW  Elec       q    Type
REMARK                         _______ _______ _______ _____ _____    ______ ____
ROOT
ATOM      1  C   UNL     1     -10.999  14.507  69.429  0.00  0.00    +0.073 C 
ATOM      2  C   UNL     1     -11.322  15.204  68.008  0.00  0.00    +0.082 C 
ATOM      3  C   UNL     1     -10.068  14.550  67.235  0.00  0.00    +0.073 C 
ATOM      4  C   UNL     1      -9.726  13.332  67.532  0.00  0.00    +0.051 C 
ATOM      5  C   UNL     1      -8.517  12.793  66.832  0.00  0.00    +0.049 C 
ATOM      6  N   UNL     1     -10.523  12.491  68.377  0.00  0.00    -0.221 NA
ATOM      7  C   UNL     1     -11.298  13.212  69.334  0.00  0.00    +0.051 C 
ATOM      8  C   UNL     1     -12.230  12.481  70.204  0.00  0.00    +0.049 C 
ENDROOT
BRANCH   2   9
ATOM      9  C   UNL     1     -10.500  16.538  68.403  0.00  0.00    -0.008 A 
ATOM     10  C   UNL     1      -9.120  16.363  68.469  0.00  0.00    +0.072 A 
ATOM     11  C   UNL     1      -8.304  17.461  68.553  0.00  0.00    +0.290 A 
ATOM     12  C   UNL     1      -8.848  18.693  68.267  0.00  0.00    +0.075 A 
ATOM     13  C   UNL     1     -10.190  18.823  67.935  0.00  0.00    +0.006 A 
ATOM     14  C   UNL     1     -10.835  17.634  67.609  0.00  0.00    -0.003 A 
BRANCH  11  15
ATOM     15  N   UNL     1      -6.915  17.340  68.777  0.00  0.00    +0.081 N 
ATOM     16  O   UNL     1      -6.275  18.085  69.741  0.00  0.00    -0.576 OA
ATOM     17  O   UNL     1      -6.303  16.398  68.244  0.00  0.00    +0.041 OA
ENDBRANCH  11  15
ENDBRANCH   2   9
BRANCH   1  18
ATOM     18  C   UNL     1     -11.582  15.181  70.596  0.00  0.00    +0.339 C 
ATOM     19  O   UNL     1     -10.854  15.561  71.563  0.00  0.00    -0.245 OA
BRANCH  18  20
ATOM     20  O   UNL     1     -12.864  15.705  70.559  0.00  0.00    -0.443 OA
BRANCH  20  21
ATOM     21  C   UNL     1     -13.948  15.216  71.303  0.00  0.00    +0.241 C 
BRANCH  21  22
ATOM     22  C   UNL     1     -13.892  15.788  72.703  0.00  0.00    +0.190 C 
BRANCH  22  24
ATOM     23  C   UNL     1     -12.465  15.581  74.517  0.00  0.00    +0.174 C 
ATOM     24  O   UNL     1     -13.268  14.946  73.601  0.00  0.00    -0.347 OA
ENDBRANCH  22  24
ENDBRANCH  21  22
ENDBRANCH  20  21
ENDBRANCH  18  20
ENDBRANCH   1  18
BRANCH   3  25
ATOM     25  C   UNL     1     -10.103  14.898  65.801  0.00  0.00    +0.339 C 
ATOM     26  O   UNL     1      -9.291  15.781  65.389  0.00  0.00    -0.245 OA
BRANCH  25  27
ATOM     27  O   UNL     1     -10.559  14.024  64.823  0.00  0.00    -0.449 OA
BRANCH  27  28
ATOM     28  C   UNL     1     -11.913  13.975  64.378  0.00  0.00    +0.169 C 
ATOM     29  C   UNL     1     -12.793  13.494  65.526  0.00  0.00    +0.047 C 
ATOM     30  C   UNL     1     -12.026  12.900  63.305  0.00  0.00    +0.047 C 
ENDBRANCH  27  28
ENDBRANCH  25  27
ENDBRANCH   3  25
TORSDOF 10
ENDMDL
MODEL 4
REMARK VINA RESULT:      -6.1      2.851      5.499
REMARK  Name = 
REMARK  10 active torsions:
REMARK  status: ('A' for Active; 'I' for Inactive)
REMARK    1  A    between atoms: O_2  and  C_3
REMARK    2  A    between atoms: C_3  and  C_4
REMARK    3  A    between atoms: C_4  and  O_5
REMARK    4  A    between atoms: O_5  and  C_6
REMARK    5  A    between atoms: C_6  and  C_8
REMARK    6  A    between atoms: C_14  and  C_15
REMARK    7  A    between atoms: C_15  and  O_17
REMARK    8  A    between atoms: O_17  and  C_18
REMARK    9  A    between atoms: C_21  and  C_22
REMARK   10  A    between atoms: C_26  and  N_27
REMARK                            x       y       z     vdW  Elec       q    Type
REMARK                         _______ _______ _______ _____ _____    ______ ____
ROOT
ATOM      1  C   UNL     1     -11.267  15.007  69.175  0.00  0.00    +0.073 C 
ATOM      2  C   UNL     1      -9.782  14.872  68.555  0.00  0.00    +0.082 C 
ATOM      3  C   UNL     1      -9.849  16.242  67.710  0.00  0.00    +0.073 C 
ATOM      4  C   UNL     1     -10.470  17.259  68.230  0.00  0.00    +0.051 C 
ATOM      5  C   UNL     1     -10.558  18.488  67.380  0.00  0.00    +0.049 C 
ATOM      6  N   UNL     1     -10.931  17.269  69.589  0.00  0.00    -0.221 NA
ATOM      7  C   UNL     1     -11.247  15.972  70.093  0.00  0.00    +0.051 C 
ATOM      8  C   UNL     1     -11.647  15.825  71.500  0.00  0.00    +0.049 C 
ENDROOT
BRANCH   2   9
ATOM      9  C   UNL     1     -10.311  13.976  67.318  0.00  0.00    -0.008 A 
ATOM     10  C   UNL     1     -11.003  14.693  66.345  0.00  0.00    +0.072 A 
ATOM     11  C   UNL     1     -11.285  14.099  65.143  0.00  0.00    +0.290 A 
ATOM     12  C   UNL     1     -10.622  12.935  64.825  0.00  0.00    +0.075 A 
ATOM     13  C   UNL     1      -9.717  12.364  65.711  0.00  0.00    +0.006 A 
ATOM     14  C   UNL     1      -9.307  13.191  66.752  0.00  0.00    -0.003 A 
BRANCH  11  15
ATOM     15  N   UNL     1     -12.113  14.720  64.183  0.00  0.00    +0.081 N 
ATOM     16  O   UNL     1     -12.068  16.078  63.964  0.00  0.00    -0.576 OA
ATOM     17  O   UNL     1     -12.739  14.006  63.379  0.00  0.00    +0.041 OA
ENDBRANCH  11  15
ENDBRANCH   2   9
BRANCH   1  18
ATOM     18  C   UNL     1     -11.866  13.746  69.631  0.00  0.00    +0.339 C 
ATOM     19  O   UNL     1     -13.048  13.711  70.088  0.00  0.00    -0.245 OA
BRANCH  18  20
ATOM     20  O   UNL     1     -11.307  12.522  69.299  0.00  0.00    -0.443 OA
BRANCH  20  21
ATOM     21  C   UNL     1     -11.949  11.284  69.454  0.00  0.00    +0.241 C 
BRANCH  21  22
ATOM     22  C   UNL     1     -11.064  10.360  70.263  0.00  0.00    +0.190 C 
BRANCH  22  24
ATOM     23  C   UNL     1     -12.968  10.327  71.582  0.00  0.00    +0.174 C 
ATOM     24  O   UNL     1     -11.709   9.824  71.358  0.00  0.00    -0.347 OA
ENDBRANCH  22  24
ENDBRANCH  21  22
ENDBRANCH  20  21
ENDBRANCH  18  20
ENDBRANCH   1  18
BRANCH   3  25
ATOM     25  C   UNL     1      -8.552  16.518  67.063  0.00  0.00    +0.339 C 
ATOM     26  O   UNL     1      -8.555  16.760  65.817  0.00  0.00    -0.245 OA
BRANCH  25  27
ATOM     27  O   UNL     1      -7.456  17.020  67.751  0.00  0.00    -0.449 OA
BRANCH  27  28
ATOM     28  C   UNL     1      -6.919  18.323  67.537  0.00  0.00    +0.169 C 
ATOM     29  C   UNL     1      -5.438  18.198  67.199  0.00  0.00    +0.047 C 
ATOM     30  C   UNL     1      -6.969  19.085  68.856  0.00  0.00    +0.047 C 
ENDBRANCH  27  28
ENDBRANCH  25  27
ENDBRANCH   3  25
TORSDOF 10
ENDMDL
MODEL 5
REMARK VINA RESULT:      -6.1      2.725      4.325
REMARK  Name = 
REMARK  10 active torsions:
REMARK  status: ('A' for Active; 'I' for Inactive)
REMARK    1  A    between atoms: O_2  and  C_3
REMARK    2  A    between atoms: C_3  and  C_4
REMARK    3  A    between atoms: C_4  and  O_5
REMARK    4  A    between atoms: O_5  and  C_6
REMARK    5  A    between atoms: C_6  and  C_8
REMARK    6  A    between atoms: C_14  and  C_15
REMARK    7  A    between atoms: C_15  and  O_17
REMARK    8  A    between atoms: O_17  and  C_18
REMARK    9  A    between atoms: C_21  and  C_22
REMARK   10  A    between atoms: C_26  and  N_27
REMARK                            x       y       z     vdW  Elec       q    Type
REMARK                         _______ _______ _______ _____ _____    ______ ____
ROOT
ATOM      1  C   UNL     1     -10.232  10.049  68.116  0.00  0.00    +0.073 C 
ATOM      2  C   UNL     1     -11.303  11.123  67.558  0.00  0.00    +0.082 C 
ATOM      3  C   UNL     1     -10.538  11.384  66.165  0.00  0.00    +0.073 C 
ATOM      4  C   UNL     1      -9.952  10.379  65.583  0.00  0.00    +0.051 C 
ATOM      5  C   UNL     1      -9.202  10.687  64.324  0.00  0.00    +0.049 C 
ATOM      6  N   UNL     1     -10.113   9.027  66.032  0.00  0.00    -0.221 NA
ATOM      7  C   UNL     1     -10.383   8.917  67.429  0.00  0.00    +0.051 C 
ATOM      8  C   UNL     1     -10.660   7.594  68.008  0.00  0.00    +0.049 C 
ENDROOT
BRANCH   2   9
ATOM      9  C   UNL     1     -10.557  12.348  68.302  0.00  0.00    -0.008 A 
ATOM     10  C   UNL     1      -9.347  12.720  67.723  0.00  0.00    +0.072 A 
ATOM     11  C   UNL     1      -8.747  13.891  68.108  0.00  0.00    +0.290 A 
ATOM     12  C   UNL     1      -9.496  14.797  68.823  0.00  0.00    +0.075 A 
ATOM     13  C   UNL     1     -10.812  14.520  69.170  0.00  0.00    +0.006 A 
ATOM     14  C   UNL     1     -11.389  13.451  68.492  0.00  0.00    -0.003 A 
BRANCH  11  15
ATOM     15  N   UNL     1      -7.450  14.240  67.670  0.00  0.00    +0.081 N 
ATOM     16  O   UNL     1      -6.551  13.286  67.251  0.00  0.00    -0.576 OA
ATOM     17  O   UNL     1      -7.192  15.439  67.460  0.00  0.00    +0.041 OA
ENDBRANCH  11  15
ENDBRANCH   2   9
BRANCH   1  18
ATOM     18  C   UNL     1     -10.227   9.879  69.574  0.00  0.00    +0.339 C 
ATOM     19  O   UNL     1      -9.139   9.752  70.213  0.00  0.00    -0.245 OA
BRANCH  18  20
ATOM     20  O   UNL     1     -11.349  10.162  70.336  0.00  0.00    -0.443 OA
BRANCH  20  21
ATOM     21  C   UNL     1     -11.958   9.262  71.224  0.00  0.00    +0.241 C 
BRANCH  21  22
ATOM     22  C   UNL     1     -13.190   9.906  71.822  0.00  0.00    +0.190 C 
BRANCH  22  24
ATOM     23  C   UNL     1     -14.580   8.054  71.727  0.00  0.00    +0.174 C 
ATOM     24  O   UNL     1     -13.980   9.009  72.512  0.00  0.00    -0.347 OA
ENDBRANCH  22  24
ENDBRANCH  21  22
ENDBRANCH  20  21
ENDBRANCH  18  20
ENDBRANCH   1  18
BRANCH   3  25
ATOM     25  C   UNL     1     -11.328  12.281  65.299  0.00  0.00    +0.339 C 
ATOM     26  O   UNL     1     -12.592  12.185  65.349  0.00  0.00    -0.245 OA
BRANCH  25  27
ATOM     27  O   UNL     1     -10.854  13.506  64.848  0.00  0.00    -0.449 OA
BRANCH  27  28
ATOM     28  C   UNL     1     -11.355  14.761  65.303  0.00  0.00    +0.169 C 
ATOM     29  C   UNL     1     -12.300  15.326  64.249  0.00  0.00    +0.047 C 
ATOM     30  C   UNL     1     -10.193  15.744  65.372  0.00  0.00    +0.047 C 
ENDBRANCH  27  28
ENDBRANCH  25  27
ENDBRANCH   3  25
TORSDOF 10
ENDMDL
MODEL 6
REMARK VINA RESULT:      -6.1      2.774      6.226
REMARK  Name = 
REMARK  10 active torsions:
REMARK  status: ('A' for Active; 'I' for Inactive)
REMARK    1  A    between atoms: O_2  and  C_3
REMARK    2  A    between atoms: C_3  and  C_4
REMARK    3  A    between atoms: C_4  and  O_5
REMARK    4  A    between atoms: O_5  and  C_6
REMARK    5  A    between atoms: C_6  and  C_8
REMARK    6  A    between atoms: C_14  and  C_15
REMARK    7  A    between atoms: C_15  and  O_17
REMARK    8  A    between atoms: O_17  and  C_18
REMARK    9  A    between atoms: C_21  and  C_22
REMARK   10  A    between atoms: C_26  and  N_27
REMARK                            x       y       z     vdW  Elec       q    Type
REMARK                         _______ _______ _______ _____ _____    ______ ____
ROOT
ATOM      1  C   UNL     1      -7.588  16.428  67.235  0.00  0.00    +0.073 C 
ATOM      2  C   UNL     1      -8.453  15.542  66.198  0.00  0.00    +0.082 C 
ATOM      3  C   UNL     1      -9.709  16.550  66.154  0.00  0.00    +0.073 C 
ATOM      4  C   UNL     1      -9.478  17.828  66.201  0.00  0.00    +0.051 C 
ATOM      5  C   UNL     1     -10.681  18.720  66.221  0.00  0.00    +0.049 C 
ATOM      6  N   UNL     1      -8.156  18.378  66.105  0.00  0.00    -0.221 NA
ATOM      7  C   UNL     1      -7.138  17.503  66.589  0.00  0.00    +0.051 C 
ATOM      8  C   UNL     1      -5.728  17.901  66.467  0.00  0.00    +0.049 C 
ENDROOT
BRANCH   2   9
ATOM      9  C   UNL     1      -9.090  14.655  67.388  0.00  0.00    -0.008 A 
ATOM     10  C   UNL     1     -10.214  15.219  67.987  0.00  0.00    +0.072 A 
ATOM     11  C   UNL     1     -10.981  14.460  68.831  0.00  0.00    +0.290 A 
ATOM     12  C   UNL     1     -10.793  13.096  68.826  0.00  0.00    +0.075 A 
ATOM     13  C   UNL     1      -9.832  12.510  68.011  0.00  0.00    +0.006 A 
ATOM     14  C   UNL     1      -9.327  13.334  67.010  0.00  0.00    -0.003 A 
BRANCH  11  15
ATOM     15  N   UNL     1     -12.037  15.021  69.583  0.00  0.00    +0.081 N 
ATOM     16  O   UNL     1     -12.795  14.257  70.440  0.00  0.00    -0.576 OA
ATOM     17  O   UNL     1     -12.146  16.259  69.629  0.00  0.00    +0.041 OA
ENDBRANCH  11  15
ENDBRANCH   2   9
BRANCH   1  18
ATOM     18  C   UNL     1      -6.558  15.688  67.975  0.00  0.00    +0.339 C 
ATOM     19  O   UNL     1      -5.714  14.961  67.369  0.00  0.00    -0.245 OA
BRANCH  18  20
ATOM     20  O   UNL     1      -6.264  15.989  69.295  0.00  0.00    -0.443 OA
BRANCH  20  21
ATOM     21  C   UNL     1      -4.972  16.210  69.794  0.00  0.00    +0.241 C 
BRANCH  21  22
ATOM     22  C   UNL     1      -4.812  17.676  70.136  0.00  0.00    +0.190 C 
BRANCH  22  24
ATOM     23  C   UNL     1      -5.886  19.722  70.301  0.00  0.00    +0.174 C 
ATOM     24  O   UNL     1      -5.966  18.403  69.927  0.00  0.00    -0.347 OA
ENDBRANCH  22  24
ENDBRANCH  21  22
ENDBRANCH  20  21
ENDBRANCH  18  20
ENDBRANCH   1  18
BRANCH   3  25
ATOM     25  C   UNL     1     -10.708  16.093  65.167  0.00  0.00    +0.339 C 
ATOM     26  O   UNL     1     -11.195  16.960  64.379  0.00  0.00    -0.245 OA
BRANCH  25  27
ATOM     27  O   UNL     1     -10.771  14.786  64.707  0.00  0.00    -0.449 OA
BRANCH  27  28
ATOM     28  C   UNL     1     -11.990  14.122  64.381  0.00  0.00    +0.169 C 
ATOM     29  C   UNL     1     -12.797  13.916  65.657  0.00  0.00    +0.047 C 
ATOM     30  C   UNL     1     -11.656  12.721  63.884  0.00  0.00    +0.047 C 
ENDBRANCH  27  28
ENDBRANCH  25  27
ENDBRANCH   3  25
TORSDOF 10
ENDMDL
MODEL 7
REMARK VINA RESULT:      -6.0      2.923      5.128
REMARK  Name = 
REMARK  10 active torsions:
REMARK  status: ('A' for Active; 'I' for Inactive)
REMARK    1  A    between atoms: O_2  and  C_3
REMARK    2  A    between atoms: C_3  and  C_4
REMARK    3  A    between atoms: C_4  and  O_5
REMARK    4  A    between atoms: O_5  and  C_6
REMARK    5  A    between atoms: C_6  and  C_8
REMARK    6  A    between atoms: C_14  and  C_15
REMARK    7  A    between atoms: C_15  and  O_17
REMARK    8  A    between atoms: O_17  and  C_18
REMARK    9  A    between atoms: C_21  and  C_22
REMARK   10  A    between atoms: C_26  and  N_27
REMARK                            x       y       z     vdW  Elec       q    Type
REMARK                         _______ _______ _______ _____ _____    ______ ____
ROOT
ATOM      1  C   UNL     1      -8.937  14.200  67.323  0.00  0.00    +0.073 C 
ATOM      2  C   UNL     1     -10.130  13.198  67.751  0.00  0.00    +0.082 C 
ATOM      3  C   UNL     1      -9.224  11.866  67.713  0.00  0.00    +0.073 C 
ATOM      4  C   UNL     1      -7.990  11.946  68.112  0.00  0.00    +0.051 C 
ATOM      5  C   UNL     1      -7.174  10.696  67.998  0.00  0.00    +0.049 C 
ATOM      6  N   UNL     1      -7.460  13.115  68.752  0.00  0.00    -0.221 NA
ATOM      7  C   UNL     1      -8.107  14.324  68.358  0.00  0.00    +0.051 C 
ATOM      8  C   UNL     1      -7.725  15.589  69.004  0.00  0.00    +0.049 C 
ENDROOT
BRANCH   2   9
ATOM      9  C   UNL     1     -10.616  13.022  66.221  0.00  0.00    -0.008 A 
ATOM     10  C   UNL     1      -9.856  12.124  65.476  0.00  0.00    +0.072 A 
ATOM     11  C   UNL     1     -10.310  11.708  64.252  0.00  0.00    +0.290 A 
ATOM     12  C   UNL     1     -11.628  11.950  63.935  0.00  0.00    +0.075 A 
ATOM     13  C   UNL     1     -12.463  12.624  64.817  0.00  0.00    +0.006 A 
ATOM     14  C   UNL     1     -11.978  12.740  66.116  0.00  0.00    -0.003 A 
BRANCH  11  15
ATOM     15  N   UNL     1      -9.512  10.924  63.391  0.00  0.00    +0.081 N 
ATOM     16  O   UNL     1      -9.332   9.576  63.604  0.00  0.00    -0.576 OA
ATOM     17  O   UNL     1      -9.141  11.413  62.309  0.00  0.00    +0.041 OA
ENDBRANCH  11  15
ENDBRANCH   2   9
BRANCH   1  18
ATOM     18  C   UNL     1      -9.376  15.474  66.740  0.00  0.00    +0.339 C 
ATOM     19  O   UNL     1      -8.773  15.981  65.747  0.00  0.00    -0.245 OA
BRANCH  18  20
ATOM     20  O   UNL     1     -10.621  16.007  67.031  0.00  0.00    -0.443 OA
BRANCH  20  21
ATOM     21  C   UNL     1     -10.913  16.782  68.164  0.00  0.00    +0.241 C 
BRANCH  21  22
ATOM     22  C   UNL     1     -10.186  18.106  68.065  0.00  0.00    +0.190 C 
BRANCH  22  24
ATOM     23  C   UNL     1     -10.551  19.519  66.265  0.00  0.00    +0.174 C 
ATOM     24  O   UNL     1     -10.962  19.101  67.508  0.00  0.00    -0.347 OA
ENDBRANCH  22  24
ENDBRANCH  21  22
ENDBRANCH  20  21
ENDBRANCH  18  20
ENDBRANCH   1  18
BRANCH   3  25
ATOM     25  C   UNL     1      -9.998  10.699  68.180  0.00  0.00    +0.339 C 
ATOM     26  O   UNL     1     -10.049   9.684  67.421  0.00  0.00    -0.245 OA
BRANCH  25  27
ATOM     27  O   UNL     1     -10.227  10.433  69.523  0.00  0.00    -0.449 OA
BRANCH  27  28
ATOM     28  C   UNL     1     -11.520  10.176  70.067  0.00  0.00    +0.169 C 
ATOM     29  C   UNL     1     -12.160  11.501  70.466  0.00  0.00    +0.047 C 
ATOM     30  C   UNL     1     -11.347   9.404  71.369  0.00  0.00    +0.047 C 
ENDBRANCH  27  28
ENDBRANCH  25  27
ENDBRANCH   3  25
TORSDOF 10
ENDMDL
MODEL 8
REMARK VINA RESULT:      -6.0      2.504      6.451
REMARK  Name = 
REMARK  10 active torsions:
REMARK  status: ('A' for Active; 'I' for Inactive)
REMARK    1  A    between atoms: O_2  and  C_3
REMARK    2  A    between atoms: C_3  and  C_4
REMARK    3  A    between atoms: C_4  and  O_5
REMARK    4  A    between atoms: O_5  and  C_6
REMARK    5  A    between atoms: C_6  and  C_8
REMARK    6  A    between atoms: C_14  and  C_15
REMARK    7  A    between atoms: C_15  and  O_17
REMARK    8  A    between atoms: O_17  and  C_18
REMARK    9  A    between atoms: C_21  and  C_22
REMARK   10  A    between atoms: C_26  and  N_27
REMARK                            x       y       z     vdW  Elec       q    Type
REMARK                         _______ _______ _______ _____ _____    ______ ____
ROOT
ATOM      1  C   UNL     1      -7.576  16.152  67.199  0.00  0.00    +0.073 C 
ATOM      2  C   UNL     1      -8.497  15.319  66.166  0.00  0.00    +0.082 C 
ATOM      3  C   UNL     1      -9.692  16.398  66.131  0.00  0.00    +0.073 C 
ATOM      4  C   UNL     1      -9.387  17.661  66.178  0.00  0.00    +0.051 C 
ATOM      5  C   UNL     1     -10.536  18.621  66.206  0.00  0.00    +0.049 C 
ATOM      6  N   UNL     1      -8.036  18.132  66.074  0.00  0.00    -0.221 NA
ATOM      7  C   UNL     1      -7.068  17.199  66.551  0.00  0.00    +0.051 C 
ATOM      8  C   UNL     1      -5.638  17.515  66.420  0.00  0.00    +0.049 C 
ENDROOT
BRANCH   2   9
ATOM      9  C   UNL     1      -9.177  14.469  67.360  0.00  0.00    -0.008 A 
ATOM     10  C   UNL     1     -10.258  15.099  67.971  0.00  0.00    +0.072 A 
ATOM     11  C   UNL     1     -11.063  14.387  68.821  0.00  0.00    +0.290 A 
ATOM     12  C   UNL     1     -10.961  13.014  68.809  0.00  0.00    +0.075 A 
ATOM     13  C   UNL     1     -10.047  12.372  67.983  0.00  0.00    +0.006 A 
ATOM     14  C   UNL     1      -9.500  13.166  66.979  0.00  0.00    -0.003 A 
BRANCH  11  15
ATOM     15  N   UNL     1     -12.074  15.010  69.584  0.00  0.00    +0.081 N 
ATOM     16  O   UNL     1     -12.844  14.299  70.476  0.00  0.00    -0.576 OA
ATOM     17  O   UNL     1     -12.128  16.253  69.606  0.00  0.00    +0.041 OA
ENDBRANCH  11  15
ENDBRANCH   2   9
BRANCH   1  18
ATOM     18  C   UNL     1      -6.586  15.352  67.932  0.00  0.00    +0.339 C 
ATOM     19  O   UNL     1      -6.469  15.450  69.190  0.00  0.00    -0.245 OA
BRANCH  18  20
ATOM     20  O   UNL     1      -5.973  14.255  67.348  0.00  0.00    -0.443 OA
BRANCH  20  21
ATOM     21  C   UNL     1      -5.294  13.251  68.054  0.00  0.00    +0.241 C 
BRANCH  21  22
ATOM     22  C   UNL     1      -6.056  11.950  67.932  0.00  0.00    +0.190 C 
BRANCH  22  24
ATOM     23  C   UNL     1      -5.304  11.033  65.941  0.00  0.00    +0.174 C 
ATOM     24  O   UNL     1      -6.343  11.619  66.623  0.00  0.00    -0.347 OA
ENDBRANCH  22  24
ENDBRANCH  21  22
ENDBRANCH  20  21
ENDBRANCH  18  20
ENDBRANCH   1  18
BRANCH   3  25
ATOM     25  C   UNL     1     -10.722  16.002  65.151  0.00  0.00    +0.339 C 
ATOM     26  O   UNL     1     -11.220  16.911  64.420  0.00  0.00    -0.245 OA
BRANCH  25  27
ATOM     27  O   UNL     1     -10.812  14.719  64.627  0.00  0.00    -0.449 OA
BRANCH  27  28
ATOM     28  C   UNL     1     -12.049  14.072  64.335  0.00  0.00    +0.169 C 
ATOM     29  C   UNL     1     -12.849  13.931  65.624  0.00  0.00    +0.047 C 
ATOM     30  C   UNL     1     -11.749  12.646  63.888  0.00  0.00    +0.047 C 
ENDBRANCH  27  28
ENDBRANCH  25  27
ENDBRANCH   3  25
TORSDOF 10
ENDMDL
MODEL 9
REMARK VINA RESULT:      -6.0      3.028      5.301
REMARK  Name = 
REMARK  10 active torsions:
REMARK  status: ('A' for Active; 'I' for Inactive)
REMARK    1  A    between atoms: O_2  and  C_3
REMARK    2  A    between atoms: C_3  and  C_4
REMARK    3  A    between atoms: C_4  and  O_5
REMARK    4  A    between atoms: O_5  and  C_6
REMARK    5  A    between atoms: C_6  and  C_8
REMARK    6  A    between atoms: C_14  and  C_15
REMARK    7  A    between atoms: C_15  and  O_17
REMARK    8  A    between atoms: O_17  and  C_18
REMARK    9  A    between atoms: C_21  and  C_22
REMARK   10  A    between atoms: C_26  and  N_27
REMARK                            x       y       z     vdW  Elec       q    Type
REMARK                         _______ _______ _______ _____ _____    ______ ____
ROOT
ATOM      1  C   UNL     1      -7.880  13.280  67.360  0.00  0.00    +0.073 C 
ATOM      2  C   UNL     1      -9.219  13.205  68.261  0.00  0.00    +0.082 C 
ATOM      3  C   UNL     1     -10.215  12.944  67.022  0.00  0.00    +0.073 C 
ATOM      4  C   UNL     1      -9.801  12.198  66.042  0.00  0.00    +0.051 C 
ATOM      5  C   UNL     1     -10.741  12.038  64.887  0.00  0.00    +0.049 C 
ATOM      6  N   UNL     1      -8.576  11.454  66.102  0.00  0.00    -0.221 NA
ATOM      7  C   UNL     1      -7.589  12.048  66.945  0.00  0.00    +0.051 C 
ATOM      8  C   UNL     1      -6.318  11.345  67.170  0.00  0.00    +0.049 C 
ENDROOT
BRANCH   2   9
ATOM      9  C   UNL     1      -9.422  14.807  68.205  0.00  0.00    -0.008 A 
ATOM     10  C   UNL     1      -9.813  15.293  66.961  0.00  0.00    +0.072 A 
ATOM     11  C   UNL     1     -10.251  16.587  66.850  0.00  0.00    +0.290 A 
ATOM     12  C   UNL     1     -10.572  17.263  68.005  0.00  0.00    +0.075 A 
ATOM     13  C   UNL     1     -10.427  16.661  69.249  0.00  0.00    +0.006 A 
ATOM     14  C   UNL     1     -10.254  15.281  69.219  0.00  0.00    -0.003 A 
BRANCH  11  15
ATOM     15  N   UNL     1     -10.512  17.178  65.594  0.00  0.00    +0.081 N 
ATOM     16  O   UNL     1     -10.936  16.429  64.520  0.00  0.00    -0.576 OA
ATOM     17  O   UNL     1     -10.563  18.419  65.515  0.00  0.00    +0.041 OA
ENDBRANCH  11  15
ENDBRANCH   2   9
BRANCH   1  18
ATOM     18  C   UNL     1      -6.755  13.994  67.978  0.00  0.00    +0.339 C 
ATOM     19  O   UNL     1      -6.078  14.841  67.321  0.00  0.00    -0.245 OA
BRANCH  18  20
ATOM     20  O   UNL     1      -6.585  14.016  69.353  0.00  0.00    -0.443 OA
BRANCH  20  21
ATOM     21  C   UNL     1      -5.453  13.530  70.024  0.00  0.00    +0.241 C 
BRANCH  21  22
ATOM     22  C   UNL     1      -5.258  14.311  71.306  0.00  0.00    +0.190 C 
BRANCH  22  24
ATOM     23  C   UNL     1      -5.264  14.054  73.609  0.00  0.00    +0.174 C 
ATOM     24  O   UNL     1      -5.810  13.683  72.404  0.00  0.00    -0.347 OA
ENDBRANCH  22  24
ENDBRANCH  21  22
ENDBRANCH  20  21
ENDBRANCH  18  20
ENDBRANCH   1  18
BRANCH   3  25
ATOM     25  C   UNL     1     -11.590  12.703  67.503  0.00  0.00    +0.339 C 
ATOM     26  O   UNL     1     -12.489  13.528  67.153  0.00  0.00    -0.245 OA
BRANCH  25  27
ATOM     27  O   UNL     1     -12.058  11.444  67.853  0.00  0.00    -0.449 OA
BRANCH  27  28
ATOM     28  C   UNL     1     -12.041  10.939  69.186  0.00  0.00    +0.169 C 
ATOM     29  C   UNL     1     -12.013  12.112  70.159  0.00  0.00    +0.047 C 
ATOM     30  C   UNL     1     -10.724  10.203  69.403  0.00  0.00    +0.047 C 
ENDBRANCH  27  28
ENDBRANCH  25  27
ENDBRANCH   3  25
TORSDOF 10
ENDMDL
