MODEL 1
REMARK VINA RESULT:      -6.1      0.000      0.000
REMARK  Name = 
REMARK  6 active torsions:
REMARK  status: ('A' for Active; 'I' for Inactive)
REMARK    1  A    between atoms: C_7  and  C_8
REMARK    2  A    between atoms: C_8  and  O_9
REMARK    3  A    between atoms: C_8  and  C_15
REMARK    4  A    between atoms: O_9  and  C_10
REMARK    5  A    between atoms: C_10  and  C_11
REMARK    6  A    between atoms: C_11  and  N_12
REMARK                            x       y       z     vdW  Elec       q    Type
REMARK                         _______ _______ _______ _____ _____    ______ ____
ROOT
ATOM      1  C   UNL     1     -11.729  15.212  69.343  0.00  0.00    +0.159 C 
ENDROOT
BRANCH   1   4
ATOM      2  C   UNL     1     -11.792  14.205  66.741  0.00  0.00    +0.031 C 
ATOM      3  C   UNL     1     -11.612  13.281  67.756  0.00  0.00    -0.023 A 
ATOM      4  C   UNL     1     -11.380  13.608  69.088  0.00  0.00    +0.005 A 
ATOM      5  C   UNL     1     -11.836  12.767  70.053  0.00  0.00    -0.002 A 
ATOM      6  C   UNL     1     -11.625  11.414  69.812  0.00  0.00    -0.000 A 
ATOM      7  C   UNL     1     -11.748  10.985  68.498  0.00  0.00    -0.000 A 
ATOM      8  C   UNL     1     -11.773  11.926  67.491  0.00  0.00    -0.004 A 
ENDBRANCH   1   4
BRANCH   1   9
ATOM      9  C   UNL     1     -12.261  14.930  70.889  0.00  0.00    +0.009 A 
ATOM     10  C   UNL     1     -13.615  15.172  70.920  0.00  0.00    -0.002 A 
ATOM     11  C   UNL     1     -14.210  15.459  72.129  0.00  0.00    -0.000 A 
ATOM     12  C   UNL     1     -13.429  15.754  73.215  0.00  0.00    -0.000 A 
ATOM     13  C   UNL     1     -12.102  15.400  73.151  0.00  0.00    -0.000 A 
ATOM     14  C   UNL     1     -11.490  15.315  71.907  0.00  0.00    -0.002 A 
ENDBRANCH   1   9
BRANCH   1  15
ATOM     15  O   UNL     1     -10.258  15.542  69.757  0.00  0.00    -0.346 OA
BRANCH  15  16
ATOM     16  C   UNL     1      -9.828  16.328  68.705  0.00  0.00    +0.160 C 
BRANCH  16  17
ATOM     17  C   UNL     1     -10.210  17.766  68.840  0.00  0.00    +0.105 C 
BRANCH  17  18
ATOM     18  N   UNL     1     -10.672  18.378  67.632  0.00  0.00    -0.268 NA
ATOM     19  C   UNL     1     -10.307  17.680  66.427  0.00  0.00    +0.090 C 
ATOM     20  C   UNL     1     -10.281  19.760  67.615  0.00  0.00    +0.090 C 
ENDBRANCH  17  18
ENDBRANCH  16  17
ENDBRANCH  15  16
ENDBRANCH   1  15
TORSDOF 6
ENDMDL
MODEL 2
REMARK VINA RESULT:      -5.9      1.906      5.033
REMARK  Name = 
REMARK  6 active torsions:
REMARK  status: ('A' for Active; 'I' for Inactive)
REMARK    1  A    between atoms: C_7  and  C_8
REMARK    2  A    between atoms: C_8  and  O_9
REMARK    3  A    between atoms: C_8  and  C_15
REMARK    4  A    between atoms: O_9  and  C_10
REMARK    5  A    between atoms: C_10  and  C_11
REMARK    6  A    between atoms: C_11  and  N_12
REMARK                            x       y       z     vdW  Elec       q    Type
REMARK                         _______ _______ _______ _____ _____    ______ ____
ROOT
ATOM      1  C   UNL     1     -10.762  15.204  68.820  0.00  0.00    +0.159 C 
ENDROOT
BRANCH   1   4
ATOM      2  C   UNL     1     -11.739  12.641  68.308  0.00  0.00    +0.031 C 
ATOM      3  C   UNL     1     -11.684  13.507  67.229  0.00  0.00    -0.023 A 
ATOM      4  C   UNL     1     -11.395  14.864  67.322  0.00  0.00    +0.005 A 
ATOM      5  C   UNL     1     -10.755  15.464  66.285  0.00  0.00    -0.002 A 
ATOM      6  C   UNL     1     -11.219  15.124  65.020  0.00  0.00    -0.000 A 
ATOM      7  C   UNL     1     -11.618  13.807  64.833  0.00  0.00    -0.000 A 
ATOM      8  C   UNL     1     -11.812  13.008  65.938  0.00  0.00    -0.004 A 
ENDBRANCH   1   4
BRANCH   1   9
ATOM      9  C   UNL     1      -9.865  16.472  68.238  0.00  0.00    +0.009 A 
ATOM     10  C   UNL     1      -8.547  16.241  68.562  0.00  0.00    -0.002 A 
ATOM     11  C   UNL     1      -7.680  17.310  68.613  0.00  0.00    -0.000 A 
ATOM     12  C   UNL     1      -8.176  18.586  68.603  0.00  0.00    -0.000 A 
ATOM     13  C   UNL     1      -9.473  18.754  68.180  0.00  0.00    -0.000 A 
ATOM     14  C   UNL     1     -10.369  17.703  68.331  0.00  0.00    -0.002 A 
ENDBRANCH   1   9
BRANCH   1  15
ATOM     15  O   UNL     1     -11.995  16.076  69.225  0.00  0.00    -0.346 OA
BRANCH  15  16
ATOM     16  C   UNL     1     -12.460  15.421  70.350  0.00  0.00    +0.160 C 
BRANCH  16  17
ATOM     17  C   UNL     1     -11.944  15.996  71.628  0.00  0.00    +0.105 C 
BRANCH  17  18
ATOM     18  N   UNL     1     -12.887  16.003  72.704  0.00  0.00    -0.268 NA
ATOM     19  C   UNL     1     -12.398  15.443  73.937  0.00  0.00    +0.090 C 
ATOM     20  C   UNL     1     -14.116  15.400  72.268  0.00  0.00    +0.090 C 
ENDBRANCH  17  18
ENDBRANCH  16  17
ENDBRANCH  15  16
ENDBRANCH   1  15
TORSDOF 6
ENDMDL
MODEL 3
REMARK VINA RESULT:      -5.5      2.013      5.560
REMARK  Name = 
REMARK  6 active torsions:
REMARK  status: ('A' for Active; 'I' for Inactive)
REMARK    1  A    between atoms: C_7  and  C_8
REMARK    2  A    between atoms: C_8  and  O_9
REMARK    3  A    between atoms: C_8  and  C_15
REMARK    4  A    between atoms: O_9  and  C_10
REMARK    5  A    between atoms: C_10  and  C_11
REMARK    6  A    between atoms: C_11  and  N_12
REMARK                            x       y       z     vdW  Elec       q    Type
REMARK                         _______ _______ _______ _____ _____    ______ ____
ROOT
ATOM      1  C   UNL     1     -11.584  15.721  68.503  0.00  0.00    +0.159 C 
ENDROOT
BRANCH   1   4
ATOM      2  C   UNL     1     -10.339  18.135  67.863  0.00  0.00    +0.031 C 
ATOM      3  C   UNL     1      -9.532  17.150  68.405  0.00  0.00    -0.023 A 
ATOM      4  C   UNL     1      -9.999  15.956  68.944  0.00  0.00    +0.005 A 
ATOM      5  C   UNL     1      -9.214  14.851  68.855  0.00  0.00    -0.002 A 
ATOM      6  C   UNL     1      -7.868  15.051  69.139  0.00  0.00    -0.000 A 
ATOM      7  C   UNL     1      -7.311  16.251  68.720  0.00  0.00    -0.000 A 
ATOM      8  C   UNL     1      -8.149  17.272  68.328  0.00  0.00    -0.004 A 
ENDBRANCH   1   4
BRANCH   1   9
ATOM      9  C   UNL     1     -11.200  14.444  67.516  0.00  0.00    +0.009 A 
ATOM     10  C   UNL     1     -11.214  14.896  66.216  0.00  0.00    -0.002 A 
ATOM     11  C   UNL     1     -11.385  13.984  65.199  0.00  0.00    -0.000 A 
ATOM     12  C   UNL     1     -11.792  12.710  65.493  0.00  0.00    -0.000 A 
ATOM     13  C   UNL     1     -11.664  12.293  66.796  0.00  0.00    -0.000 A 
ATOM     14  C   UNL     1     -11.695  13.242  67.810  0.00  0.00    -0.002 A 
ENDBRANCH   1   9
BRANCH   1  15
ATOM     15  O   UNL     1     -11.881  14.842  69.762  0.00  0.00    -0.346 OA
BRANCH  15  16
ATOM     16  C   UNL     1     -12.148  15.796  70.727  0.00  0.00    +0.160 C 
BRANCH  16  17
ATOM     17  C   UNL     1     -11.729  15.386  72.100  0.00  0.00    +0.105 C 
BRANCH  17  18
ATOM     18  N   UNL     1     -12.809  15.095  72.993  0.00  0.00    -0.268 NA
ATOM     19  C   UNL     1     -14.098  15.554  72.547  0.00  0.00    +0.090 C 
ATOM     20  C   UNL     1     -12.479  15.560  74.312  0.00  0.00    +0.090 C 
ENDBRANCH  17  18
ENDBRANCH  16  17
ENDBRANCH  15  16
ENDBRANCH   1  15
TORSDOF 6
ENDMDL
MODEL 4
REMARK VINA RESULT:      -5.4      3.398      6.036
REMARK  Name = 
REMARK  6 active torsions:
REMARK  status: ('A' for Active; 'I' for Inactive)
REMARK    1  A    between atoms: C_7  and  C_8
REMARK    2  A    between atoms: C_8  and  O_9
REMARK    3  A    between atoms: C_8  and  C_15
REMARK    4  A    between atoms: O_9  and  C_10
REMARK    5  A    between atoms: C_10  and  C_11
REMARK    6  A    between atoms: C_11  and  N_12
REMARK                            x       y       z     vdW  Elec       q    Type
REMARK                         _______ _______ _______ _____ _____    ______ ____
ROOT
ATOM      1  C   UNL     1     -10.723  11.997  67.676  0.00  0.00    +0.159 C 
ENDROOT
BRANCH   1   4
ATOM      2  C   UNL     1      -8.987  10.949  65.759  0.00  0.00    +0.031 C 
ATOM      3  C   UNL     1     -10.222  11.378  65.304  0.00  0.00    -0.023 A 
ATOM      4  C   UNL     1     -11.276  11.762  66.127  0.00  0.00    +0.005 A 
ATOM      5  C   UNL     1     -12.136  12.714  65.679  0.00  0.00    -0.002 A 
ATOM      6  C   UNL     1     -12.541  12.577  64.357  0.00  0.00    -0.000 A 
ATOM      7  C   UNL     1     -11.591  12.117  63.455  0.00  0.00    -0.000 A 
ATOM      8  C   UNL     1     -10.431  11.554  63.941  0.00  0.00    -0.004 A 
ENDBRANCH   1   4
BRANCH   1   9
ATOM      9  C   UNL     1     -10.964  13.637  67.595  0.00  0.00    +0.009 A 
ATOM     10  C   UNL     1      -9.751  14.229  67.325  0.00  0.00    -0.002 A 
ATOM     11  C   UNL     1      -9.573  15.554  67.654  0.00  0.00    -0.000 A 
ATOM     12  C   UNL     1     -10.484  16.180  68.463  0.00  0.00    -0.000 A 
ATOM     13  C   UNL     1     -11.710  15.578  68.613  0.00  0.00    -0.000 A 
ATOM     14  C   UNL     1     -11.803  14.200  68.464  0.00  0.00    -0.002 A 
ENDBRANCH   1   9
BRANCH   1  15
ATOM     15  O   UNL     1     -12.121  11.680  68.301  0.00  0.00    -0.346 OA
BRANCH  15  16
ATOM     16  C   UNL     1     -11.809  10.710  69.236  0.00  0.00    +0.160 C 
BRANCH  16  17
ATOM     17  C   UNL     1     -12.170  11.093  70.633  0.00  0.00    +0.105 C 
BRANCH  17  18
ATOM     18  N   UNL     1     -12.182  10.008  71.566  0.00  0.00    -0.268 NA
ATOM     19  C   UNL     1     -11.038   9.138  71.491  0.00  0.00    +0.090 C 
ATOM     20  C   UNL     1     -13.428   9.300  71.461  0.00  0.00    +0.090 C 
ENDBRANCH  17  18
ENDBRANCH  16  17
ENDBRANCH  15  16
ENDBRANCH   1  15
TORSDOF 6
ENDMDL
MODEL 5
REMARK VINA RESULT:      -5.4      3.414      5.808
REMARK  Name = 
REMARK  6 active torsions:
REMARK  status: ('A' for Active; 'I' for Inactive)
REMARK    1  A    between atoms: C_7  and  C_8
REMARK    2  A    between atoms: C_8  and  O_9
REMARK    3  A    between atoms: C_8  and  C_15
REMARK    4  A    between atoms: O_9  and  C_10
REMARK    5  A    between atoms: C_10  and  C_11
REMARK    6  A    between atoms: C_11  and  N_12
REMARK                            x       y       z     vdW  Elec       q    Type
REMARK                         _______ _______ _______ _____ _____    ______ ____
ROOT
ATOM      1  C   UNL     1     -10.515  16.135  66.772  0.00  0.00    +0.159 C 
ENDROOT
BRANCH   1   4
ATOM      2  C   UNL     1     -10.203  14.163  68.722  0.00  0.00    +0.031 C 
ATOM      3  C   UNL     1      -9.049  14.596  68.093  0.00  0.00    -0.023 A 
ATOM      4  C   UNL     1      -9.023  15.436  66.985  0.00  0.00    +0.005 A 
ATOM      5  C   UNL     1      -7.972  16.285  66.837  0.00  0.00    -0.002 A 
ATOM      6  C   UNL     1      -6.721  15.735  67.095  0.00  0.00    -0.000 A 
ATOM      7  C   UNL     1      -6.642  14.815  68.131  0.00  0.00    -0.000 A 
ATOM      8  C   UNL     1      -7.809  14.283  68.637  0.00  0.00    -0.004 A 
ENDBRANCH   1   4
BRANCH   1   9
ATOM      9  C   UNL     1      -9.915  17.666  66.991  0.00  0.00    +0.009 A 
ATOM     10  C   UNL     1      -9.949  17.944  68.339  0.00  0.00    -0.002 A 
ATOM     11  C   UNL     1      -9.949  19.260  68.744  0.00  0.00    -0.000 A 
ATOM     12  C   UNL     1     -10.177  20.252  67.827  0.00  0.00    -0.000 A 
ATOM     13  C   UNL     1     -10.035  19.926  66.500  0.00  0.00    -0.000 A 
ATOM     14  C   UNL     1     -10.239  18.609  66.107  0.00  0.00    -0.002 A 
ENDBRANCH   1   9
BRANCH   1  15
ATOM     15  O   UNL     1     -10.369  16.147  65.216  0.00  0.00    -0.346 OA
BRANCH  15  16
ATOM     16  C   UNL     1     -10.652  14.835  64.886  0.00  0.00    +0.160 C 
BRANCH  16  17
ATOM     17  C   UNL     1     -12.088  14.603  64.545  0.00  0.00    +0.105 C 
BRANCH  17  18
ATOM     18  N   UNL     1     -12.529  13.251  64.704  0.00  0.00    -0.268 NA
ATOM     19  C   UNL     1     -12.018  12.585  65.873  0.00  0.00    +0.090 C 
ATOM     20  C   UNL     1     -12.278  12.520  63.492  0.00  0.00    +0.090 C 
ENDBRANCH  17  18
ENDBRANCH  16  17
ENDBRANCH  15  16
ENDBRANCH   1  15
TORSDOF 6
ENDMDL
MODEL 6
REMARK VINA RESULT:      -5.2      2.244      6.107
REMARK  Name = 
REMARK  6 active torsions:
REMARK  status: ('A' for Active; 'I' for Inactive)
REMARK    1  A    between atoms: C_7  and  C_8
REMARK    2  A    between atoms: C_8  and  O_9
REMARK    3  A    between atoms: C_8  and  C_15
REMARK    4  A    between atoms: O_9  and  C_10
REMARK    5  A    between atoms: C_10  and  C_11
REMARK    6  A    between atoms: C_11  and  N_12
REMARK                            x       y       z     vdW  Elec       q    Type
REMARK                         _______ _______ _______ _____ _____    ______ ____
ROOT
ATOM      1  C   UNL     1     -10.878  16.569  68.436  0.00  0.00    +0.159 C 
ENDROOT
BRANCH   1   4
ATOM      2  C   UNL     1     -10.565  19.214  67.602  0.00  0.00    +0.031 C 
ATOM      3  C   UNL     1      -9.446  18.600  68.137  0.00  0.00    -0.023 A 
ATOM      4  C   UNL     1      -9.452  17.357  68.762  0.00  0.00    +0.005 A 
ATOM      5  C   UNL     1      -8.341  16.580  68.675  0.00  0.00    -0.002 A 
ATOM      6  C   UNL     1      -7.133  17.244  68.862  0.00  0.00    -0.000 A 
ATOM      7  C   UNL     1      -7.040  18.531  68.350  0.00  0.00    -0.000 A 
ATOM      8  C   UNL     1      -8.194  19.178  67.965  0.00  0.00    -0.004 A 
ENDBRANCH   1   4
BRANCH   1   9
ATOM      9  C   UNL     1     -10.160  15.566  67.328  0.00  0.00    +0.009 A 
ATOM     10  C   UNL     1     -10.545  15.978  66.072  0.00  0.00    -0.002 A 
ATOM     11  C   UNL     1     -10.479  15.080  65.030  0.00  0.00    -0.000 A 
ATOM     12  C   UNL     1     -10.290  13.749  65.294  0.00  0.00    -0.000 A 
ATOM     13  C   UNL     1      -9.814  13.416  66.539  0.00  0.00    -0.000 A 
ATOM     14  C   UNL     1     -10.078  14.265  67.607  0.00  0.00    -0.002 A 
ENDBRANCH   1   9
BRANCH   1  15
ATOM     15  O   UNL     1     -10.701  15.594  69.646  0.00  0.00    -0.346 OA
BRANCH  15  16
ATOM     16  C   UNL     1     -11.754  15.954  70.466  0.00  0.00    +0.160 C 
BRANCH  16  17
ATOM     17  C   UNL     1     -11.616  15.452  71.866  0.00  0.00    +0.105 C 
BRANCH  17  18
ATOM     18  N   UNL     1     -12.745  14.719  72.353  0.00  0.00    -0.268 NA
ATOM     19  C   UNL     1     -13.078  13.548  71.586  0.00  0.00    +0.090 C 
ATOM     20  C   UNL     1     -13.859  15.611  72.519  0.00  0.00    +0.090 C 
ENDBRANCH  17  18
ENDBRANCH  16  17
ENDBRANCH  15  16
ENDBRANCH   1  15
TORSDOF 6
ENDMDL
MODEL 7
REMARK VINA RESULT:      -5.2      2.963      5.453
REMARK  Name = 
REMARK  6 active torsions:
REMARK  status: ('A' for Active; 'I' for Inactive)
REMARK    1  A    between atoms: C_7  and  C_8
REMARK    2  A    between atoms: C_8  and  O_9
REMARK    3  A    between atoms: C_8  and  C_15
REMARK    4  A    between atoms: O_9  and  C_10
REMARK    5  A    between atoms: C_10  and  C_11
REMARK    6  A    between atoms: C_11  and  N_12
REMARK                            x       y       z     vdW  Elec       q    Type
REMARK                         _______ _______ _______ _____ _____    ______ ____
ROOT
ATOM      1  C   UNL     1     -10.622  12.772  68.684  0.00  0.00    +0.159 C 
ENDROOT
BRANCH   1   4
ATOM      2  C   UNL     1      -8.627  13.641  66.937  0.00  0.00    +0.031 C 
ATOM      3  C   UNL     1      -9.923  13.660  66.451  0.00  0.00    -0.023 A 
ATOM      4  C   UNL     1     -11.018  13.106  67.105  0.00  0.00    +0.005 A 
ATOM      5  C   UNL     1     -12.237  13.681  66.934  0.00  0.00    -0.002 A 
ATOM      6  C   UNL     1     -12.548  14.043  65.628  0.00  0.00    -0.000 A 
ATOM      7  C   UNL     1     -11.508  14.534  64.850  0.00  0.00    -0.000 A 
ATOM      8  C   UNL     1     -10.213  14.365  65.289  0.00  0.00    -0.004 A 
ENDBRANCH   1   4
BRANCH   1   9
ATOM      9  C   UNL     1     -11.545  14.025  69.260  0.00  0.00    +0.009 A 
ATOM     10  C   UNL     1     -10.718  15.111  69.438  0.00  0.00    -0.002 A 
ATOM     11  C   UNL     1     -11.107  16.103  70.310  0.00  0.00    -0.000 A 
ATOM     12  C   UNL     1     -12.151  15.881  71.168  0.00  0.00    -0.000 A 
ATOM     13  C   UNL     1     -12.992  14.834  70.877  0.00  0.00    -0.000 A 
ATOM     14  C   UNL     1     -12.495  13.755  70.156  0.00  0.00    -0.002 A 
ENDBRANCH   1   9
BRANCH   1  15
ATOM     15  O   UNL     1     -11.748  11.695  68.816  0.00  0.00    -0.346 OA
BRANCH  15  16
ATOM     16  C   UNL     1     -11.022  10.543  69.054  0.00  0.00    +0.160 C 
BRANCH  16  17
ATOM     17  C   UNL     1     -11.081  10.086  70.474  0.00  0.00    +0.105 C 
BRANCH  17  18
ATOM     18  N   UNL     1     -12.353   9.573  70.885  0.00  0.00    -0.268 NA
ATOM     19  C   UNL     1     -13.080  10.424  71.790  0.00  0.00    +0.090 C 
ATOM     20  C   UNL     1     -12.191   8.237  71.387  0.00  0.00    +0.090 C 
ENDBRANCH  17  18
ENDBRANCH  16  17
ENDBRANCH  15  16
ENDBRANCH   1  15
TORSDOF 6
ENDMDL
MODEL 8
REMARK VINA RESULT:      -5.2      2.862      5.607
REMARK  Name = 
REMARK  6 active torsions:
REMARK  status: ('A' for Active; 'I' for Inactive)
REMARK    1  A    between atoms: C_7  and  C_8
REMARK    2  A    between atoms: C_8  and  O_9
REMARK    3  A    between atoms: C_8  and  C_15
REMARK    4  A    between atoms: O_9  and  C_10
REMARK    5  A    between atoms: C_10  and  C_11
REMARK    6  A    between atoms: C_11  and  N_12
REMARK                            x       y       z     vdW  Elec       q    Type
REMARK                         _______ _______ _______ _____ _____    ______ ____
ROOT
ATOM      1  C   UNL     1     -10.831  12.221  68.409  0.00  0.00    +0.159 C 
ENDROOT
BRANCH   1   4
ATOM      2  C   UNL     1     -11.648  14.559  69.696  0.00  0.00    +0.031 C 
ATOM      3  C   UNL     1     -12.170  13.373  70.183  0.00  0.00    -0.023 A 
ATOM      4  C   UNL     1     -12.020  12.134  69.567  0.00  0.00    +0.005 A 
ATOM      5  C   UNL     1     -11.974  11.023  70.347  0.00  0.00    -0.002 A 
ATOM      6  C   UNL     1     -12.909  10.976  71.374  0.00  0.00    -0.000 A 
ATOM      7  C   UNL     1     -13.203  12.175  72.009  0.00  0.00    -0.000 A 
ATOM      8  C   UNL     1     -12.801  13.354  71.421  0.00  0.00    -0.004 A 
ENDBRANCH   1   4
BRANCH   1   9
ATOM      9  C   UNL     1     -10.489  10.602  68.530  0.00  0.00    +0.009 A 
ATOM     10  C   UNL     1      -9.207  10.477  69.016  0.00  0.00    -0.002 A 
ATOM     11  C   UNL     1      -8.522   9.305  68.785  0.00  0.00    -0.000 A 
ATOM     12  C   UNL     1      -9.007   8.405  67.873  0.00  0.00    -0.000 A 
ATOM     13  C   UNL     1     -10.324   8.534  67.502  0.00  0.00    -0.000 A 
ATOM     14  C   UNL     1     -10.920   9.787  67.568  0.00  0.00    -0.002 A 
ENDBRANCH   1   9
BRANCH   1  15
ATOM     15  O   UNL     1     -11.857  12.062  67.240  0.00  0.00    -0.346 OA
BRANCH  15  16
ATOM     16  C   UNL     1     -11.582  13.168  66.459  0.00  0.00    +0.160 C 
BRANCH  16  17
ATOM     17  C   UNL     1     -12.771  13.681  65.714  0.00  0.00    +0.105 C 
BRANCH  17  18
ATOM     18  N   UNL     1     -12.505  14.085  64.367  0.00  0.00    -0.268 NA
ATOM     19  C   UNL     1     -12.032  13.033  63.506  0.00  0.00    +0.090 C 
ATOM     20  C   UNL     1     -11.637  15.231  64.373  0.00  0.00    +0.090 C 
ENDBRANCH  17  18
ENDBRANCH  16  17
ENDBRANCH  15  16
ENDBRANCH   1  15
TORSDOF 6
ENDMDL
MODEL 9
REMARK VINA RESULT:      -5.2      2.970      6.842
REMARK  Name = 
REMARK  6 active torsions:
REMARK  status: ('A' for Active; 'I' for Inactive)
REMARK    1  A    between atoms: C_7  and  C_8
REMARK    2  A    between atoms: C_8  and  O_9
REMARK    3  A    between atoms: C_8  and  C_15
REMARK    4  A    between atoms: O_9  and  C_10
REMARK    5  A    between atoms: C_10  and  C_11
REMARK    6  A    between atoms: C_11  and  N_12
REMARK                            x       y       z     vdW  Elec       q    Type
REMARK                         _______ _______ _______ _____ _____    ______ ____
ROOT
ATOM      1  C   UNL     1     -12.010  13.080  67.591  0.00  0.00    +0.159 C 
ENDROOT
BRANCH   1   4
ATOM      2  C   UNL     1     -12.339  14.286  70.086  0.00  0.00    +0.031 C 
ATOM      3  C   UNL     1     -11.520  14.945  69.185  0.00  0.00    -0.023 A 
ATOM      4  C   UNL     1     -11.099  14.417  67.970  0.00  0.00    +0.005 A 
ATOM      5  C   UNL     1     -10.879  15.267  66.933  0.00  0.00    -0.002 A 
ATOM      6  C   UNL     1     -10.190  16.432  67.253  0.00  0.00    -0.000 A 
ATOM      7  C   UNL     1     -10.469  17.006  68.486  0.00  0.00    -0.000 A 
ATOM      8  C   UNL     1     -11.158  16.266  69.422  0.00  0.00    -0.004 A 
ENDBRANCH   1   4
BRANCH   1   9
ATOM      9  C   UNL     1     -11.460  13.054  66.026  0.00  0.00    +0.009 A 
ATOM     10  C   UNL     1     -12.554  12.954  65.196  0.00  0.00    -0.002 A 
ATOM     11  C   UNL     1     -12.376  12.461  63.922  0.00  0.00    -0.000 A 
ATOM     12  C   UNL     1     -11.198  11.845  63.592  0.00  0.00    -0.000 A 
ATOM     13  C   UNL     1     -10.121  12.064  64.417  0.00  0.00    -0.000 A 
ATOM     14  C   UNL     1     -10.350  12.368  65.753  0.00  0.00    -0.002 A 
ENDBRANCH   1   9
BRANCH   1  15
ATOM     15  O   UNL     1     -10.926  12.095  68.138  0.00  0.00    -0.346 OA
BRANCH  15  16
ATOM     16  C   UNL     1     -11.697  11.087  68.684  0.00  0.00    +0.160 C 
BRANCH  16  17
ATOM     17  C   UNL     1     -10.994  10.312  69.750  0.00  0.00    +0.105 C 
BRANCH  17  18
ATOM     18  N   UNL     1     -11.856   9.740  70.740  0.00  0.00    -0.268 NA
ATOM     19  C   UNL     1     -12.785  10.664  71.335  0.00  0.00    +0.090 C 
ATOM     20  C   UNL     1     -11.067   9.038  71.714  0.00  0.00    +0.090 C 
ENDBRANCH  17  18
ENDBRANCH  16  17
ENDBRANCH  15  16
ENDBRANCH   1  15
TORSDOF 6
ENDMDL
