MODEL 1
REMARK VINA RESULT:      -6.1      0.000      0.000
REMARK  Name = 
REMARK  12 active torsions:
REMARK  status: ('A' for Active; 'I' for Inactive)
REMARK    1  A    between atoms: N_4  and  C_5
REMARK    2  A    between atoms: N_4  and  C_10
REMARK    3  A    between atoms: C_5  and  C_6
REMARK    4  A    between atoms: C_6  and  C_8
REMARK    5  A    between atoms: C_13  and  C_14
REMARK    6  A    between atoms: N_16  and  C_17
REMARK    7  A    between atoms: C_17  and  C_18
REMARK    8  A    between atoms: C_18  and  C_20
REMARK    9  A    between atoms: C_24  and  C_25
REMARK   10  A    between atoms: N_27  and  C_28
REMARK   11  A    between atoms: C_28  and  C_29
REMARK   12  A    between atoms: C_29  and  C_31
REMARK                            x       y       z     vdW  Elec       q    Type
REMARK                         _______ _______ _______ _____ _____    ______ ____
ROOT
ATOM      1  C   UNL     1      -9.519  11.667  67.476  0.00  0.00    +0.065 A 
ATOM      2  C   UNL     1     -10.261  12.462  68.347  0.00  0.00    +0.049 A 
ATOM      3  I   UNL     1     -11.872  11.514  69.322  0.00  0.00    -0.041 I 
ATOM      4  C   UNL     1      -9.894  13.710  68.760  0.00  0.00    +0.067 A 
ATOM      5  C   UNL     1      -8.646  14.157  68.365  0.00  0.00    +0.040 A 
ATOM      6  I   UNL     1      -8.065  16.134  68.711  0.00  0.00    -0.042 I 
ATOM      7  C   UNL     1      -7.729  13.274  67.826  0.00  0.00    +0.067 A 
ATOM      8  C   UNL     1      -8.232  12.128  67.242  0.00  0.00    +0.049 A 
ATOM      9  I   UNL     1      -6.906  10.747  66.464  0.00  0.00    -0.041 I 
ENDROOT
BRANCH   1  12
ATOM     10  C   UNL     1     -10.370   9.230  66.891  0.00  0.00    +0.095 C 
ATOM     11  C   UNL     1     -10.279   9.483  66.892  0.00  0.00    +0.230 C 
ATOM     12  N   UNL     1     -10.222  10.782  66.578  0.00  0.00    -0.255 N 
ATOM     13  O   UNL     1     -10.463   8.406  67.152  0.00  0.00    -0.275 OA
BRANCH  12  14
ATOM     14  C   UNL     1     -10.407  11.019  65.163  0.00  0.00    +0.134 C 
BRANCH  14  15
ATOM     15  C   UNL     1     -11.035  12.541  65.022  0.00  0.00    +0.205 C 
ATOM     16  O   UNL     1     -12.392  12.161  65.592  0.00  0.00    -0.218 OA
BRANCH  15  17
ATOM     17  C   UNL     1     -11.528  12.289  63.467  0.00  0.00    +0.217 C 
ATOM     18  O   UNL     1     -12.885  12.281  63.462  0.00  0.00    -0.218 OA
ENDBRANCH  15  17
ENDBRANCH  14  15
ENDBRANCH  12  14
ENDBRANCH   1  12
BRANCH   4  19
ATOM     19  C   UNL     1     -10.962  14.656  69.117  0.00  0.00    +0.266 C 
ATOM     20  N   UNL     1     -11.304  14.775  70.500  0.00  0.00    -0.199 NA
ATOM     21  O   UNL     1     -11.854  14.996  68.281  0.00  0.00    -0.268 OA
BRANCH  20  22
ATOM     22  C   UNL     1     -12.366  15.691  70.837  0.00  0.00    +0.151 C 
BRANCH  22  23
ATOM     23  C   UNL     1     -13.156  14.820  71.999  0.00  0.00    +0.206 C 
ATOM     24  O   UNL     1     -14.223  15.892  72.160  0.00  0.00    -0.218 OA
BRANCH  23  25
ATOM     25  C   UNL     1     -12.242  15.441  73.225  0.00  0.00    +0.217 C 
ATOM     26  O   UNL     1     -13.038  16.256  73.954  0.00  0.00    -0.218 OA
ENDBRANCH  23  25
ENDBRANCH  22  23
ENDBRANCH  20  22
ENDBRANCH   4  19
BRANCH   7  27
ATOM     27  C   UNL     1      -6.298  13.506  68.035  0.00  0.00    +0.266 C 
ATOM     28  N   UNL     1      -5.790  13.248  69.342  0.00  0.00    -0.199 NA
ATOM     29  O   UNL     1      -5.619  14.280  67.310  0.00  0.00    -0.268 OA
BRANCH  28  30
ATOM     30  C   UNL     1      -4.377  13.322  69.666  0.00  0.00    +0.151 C 
BRANCH  30  31
ATOM     31  C   UNL     1      -4.345  13.492  71.309  0.00  0.00    +0.206 C 
ATOM     32  O   UNL     1      -5.645  12.714  71.455  0.00  0.00    -0.218 OA
BRANCH  31  33
ATOM     33  C   UNL     1      -5.156  14.925  71.312  0.00  0.00    +0.217 C 
ATOM     34  O   UNL     1      -4.282  15.942  71.388  0.00  0.00    -0.218 OA
ENDBRANCH  31  33
ENDBRANCH  30  31
ENDBRANCH  28  30
ENDBRANCH   7  27
TORSDOF 12
ENDMDL
MODEL 2
REMARK VINA RESULT:      -5.9      3.155      4.375
REMARK  Name = 
REMARK  12 active torsions:
REMARK  status: ('A' for Active; 'I' for Inactive)
REMARK    1  A    between atoms: N_4  and  C_5
REMARK    2  A    between atoms: N_4  and  C_10
REMARK    3  A    between atoms: C_5  and  C_6
REMARK    4  A    between atoms: C_6  and  C_8
REMARK    5  A    between atoms: C_13  and  C_14
REMARK    6  A    between atoms: N_16  and  C_17
REMARK    7  A    between atoms: C_17  and  C_18
REMARK    8  A    between atoms: C_18  and  C_20
REMARK    9  A    between atoms: C_24  and  C_25
REMARK   10  A    between atoms: N_27  and  C_28
REMARK   11  A    between atoms: C_28  and  C_29
REMARK   12  A    between atoms: C_29  and  C_31
REMARK                            x       y       z     vdW  Elec       q    Type
REMARK                         _______ _______ _______ _____ _____    ______ ____
ROOT
ATOM      1  C   UNL     1      -9.566  13.652  67.504  0.00  0.00    +0.065 A 
ATOM      2  C   UNL     1      -9.553  14.919  68.083  0.00  0.00    +0.049 A 
ATOM      3  I   UNL     1     -11.320  15.502  69.074  0.00  0.00    -0.041 I 
ATOM      4  C   UNL     1      -8.438  15.692  68.232  0.00  0.00    +0.067 A 
ATOM      5  C   UNL     1      -7.229  15.118  67.879  0.00  0.00    +0.040 A 
ATOM      6  I   UNL     1      -5.485  16.267  67.818  0.00  0.00    -0.042 I 
ATOM      7  C   UNL     1      -7.142  13.757  67.661  0.00  0.00    +0.067 A 
ATOM      8  C   UNL     1      -8.307  13.103  67.308  0.00  0.00    +0.049 A 
ATOM      9  I   UNL     1      -8.249  11.058  67.016  0.00  0.00    -0.041 I 
ENDROOT
BRANCH   1  12
ATOM     10  C   UNL     1     -11.665  12.055  67.277  0.00  0.00    +0.095 C 
ATOM     11  C   UNL     1     -11.452  12.215  67.241  0.00  0.00    +0.230 C 
ATOM     12  N   UNL     1     -10.736  13.240  66.766  0.00  0.00    -0.255 N 
ATOM     13  O   UNL     1     -12.159  11.441  67.644  0.00  0.00    -0.275 OA
BRANCH  12  14
ATOM     14  C   UNL     1     -10.927  13.438  65.345  0.00  0.00    +0.134 C 
BRANCH  14  15
ATOM     15  C   UNL     1     -12.104  14.586  65.186  0.00  0.00    +0.205 C 
ATOM     16  O   UNL     1     -12.401  14.249  63.734  0.00  0.00    -0.218 OA
BRANCH  15  17
ATOM     17  C   UNL     1     -11.023  15.764  64.775  0.00  0.00    +0.217 C 
ATOM     18  O   UNL     1     -11.648  16.617  63.925  0.00  0.00    -0.218 OA
ENDBRANCH  15  17
ENDBRANCH  14  15
ENDBRANCH  12  14
ENDBRANCH   1  12
BRANCH   4  19
ATOM     19  C   UNL     1      -8.612  17.151  68.245  0.00  0.00    +0.266 C 
ATOM     20  N   UNL     1      -8.778  17.808  66.986  0.00  0.00    -0.199 NA
ATOM     21  O   UNL     1      -8.179  17.863  69.203  0.00  0.00    -0.268 OA
BRANCH  20  22
ATOM     22  C   UNL     1      -8.929  19.242  67.009  0.00  0.00    +0.151 C 
BRANCH  22  23
ATOM     23  C   UNL     1      -7.922  19.669  65.769  0.00  0.00    +0.206 C 
ATOM     24  O   UNL     1      -7.477  18.231  65.556  0.00  0.00    -0.218 OA
BRANCH  23  25
ATOM     25  C   UNL     1      -6.655  19.991  66.776  0.00  0.00    +0.217 C 
ATOM     26  O   UNL     1      -6.659  21.320  67.024  0.00  0.00    -0.218 OA
ENDBRANCH  23  25
ENDBRANCH  22  23
ENDBRANCH  20  22
ENDBRANCH   4  19
BRANCH   7  27
ATOM     27  C   UNL     1      -5.890  13.057  67.961  0.00  0.00    +0.266 C 
ATOM     28  N   UNL     1      -5.584  12.855  69.338  0.00  0.00    -0.199 NA
ATOM     29  O   UNL     1      -4.923  13.014  67.156  0.00  0.00    -0.268 OA
BRANCH  28  30
ATOM     30  C   UNL     1      -4.440  12.080  69.784  0.00  0.00    +0.151 C 
BRANCH  30  31
ATOM     31  C   UNL     1      -4.163  12.612  71.324  0.00  0.00    +0.206 C 
ATOM     32  O   UNL     1      -5.021  11.497  71.906  0.00  0.00    -0.218 OA
BRANCH  31  33
ATOM     33  C   UNL     1      -5.438  13.655  71.337  0.00  0.00    +0.217 C 
ATOM     34  O   UNL     1      -5.906  13.786  72.588  0.00  0.00    -0.218 OA
ENDBRANCH  31  33
ENDBRANCH  30  31
ENDBRANCH  28  30
ENDBRANCH   7  27
TORSDOF 12
ENDMDL
MODEL 3
REMARK VINA RESULT:      -5.8      2.803      3.729
REMARK  Name = 
REMARK  12 active torsions:
REMARK  status: ('A' for Active; 'I' for Inactive)
REMARK    1  A    between atoms: N_4  and  C_5
REMARK    2  A    between atoms: N_4  and  C_10
REMARK    3  A    between atoms: C_5  and  C_6
REMARK    4  A    between atoms: C_6  and  C_8
REMARK    5  A    between atoms: C_13  and  C_14
REMARK    6  A    between atoms: N_16  and  C_17
REMARK    7  A    between atoms: C_17  and  C_18
REMARK    8  A    between atoms: C_18  and  C_20
REMARK    9  A    between atoms: C_24  and  C_25
REMARK   10  A    between atoms: N_27  and  C_28
REMARK   11  A    between atoms: C_28  and  C_29
REMARK   12  A    between atoms: C_29  and  C_31
REMARK                            x       y       z     vdW  Elec       q    Type
REMARK                         _______ _______ _______ _____ _____    ______ ____
ROOT
ATOM      1  C   UNL     1     -10.047  13.397  68.280  0.00  0.00    +0.065 A 
ATOM      2  C   UNL     1     -10.209  14.679  68.800  0.00  0.00    +0.049 A 
ATOM      3  I   UNL     1     -11.882  14.967  70.050  0.00  0.00    -0.041 I 
ATOM      4  C   UNL     1      -9.271  15.669  68.730  0.00  0.00    +0.067 A 
ATOM      5  C   UNL     1      -8.039  15.325  68.202  0.00  0.00    +0.040 A 
ATOM      6  I   UNL     1      -6.606  16.792  67.805  0.00  0.00    -0.042 I 
ATOM      7  C   UNL     1      -7.705  13.996  68.024  0.00  0.00    +0.067 A 
ATOM      8  C   UNL     1      -8.747  13.099  67.897  0.00  0.00    +0.049 A 
ATOM      9  I   UNL     1      -8.309  11.092  67.678  0.00  0.00    -0.041 I 
ENDROOT
BRANCH   1  12
ATOM     10  C   UNL     1     -11.884  11.513  68.567  0.00  0.00    +0.095 C 
ATOM     11  C   UNL     1     -11.703  11.693  68.480  0.00  0.00    +0.230 C 
ATOM     12  N   UNL     1     -11.206  12.707  67.765  0.00  0.00    -0.255 N 
ATOM     13  O   UNL     1     -12.239  10.911  69.083  0.00  0.00    -0.275 OA
BRANCH  12  14
ATOM     14  C   UNL     1     -11.563  12.627  66.365  0.00  0.00    +0.134 C 
BRANCH  14  15
ATOM     15  C   UNL     1     -12.255  14.076  65.975  0.00  0.00    +0.205 C 
ATOM     16  O   UNL     1     -13.094  13.504  64.844  0.00  0.00    -0.218 OA
BRANCH  15  17
ATOM     17  C   UNL     1     -11.023  14.491  64.958  0.00  0.00    +0.217 C 
ATOM     18  O   UNL     1     -10.474  13.344  64.487  0.00  0.00    -0.218 OA
ENDBRANCH  15  17
ENDBRANCH  14  15
ENDBRANCH  12  14
ENDBRANCH   1  12
BRANCH   4  19
ATOM     19  C   UNL     1      -9.743  17.061  68.716  0.00  0.00    +0.266 C 
ATOM     20  N   UNL     1     -10.289  17.562  67.493  0.00  0.00    -0.199 NA
ATOM     21  O   UNL     1      -9.290  17.924  69.529  0.00  0.00    -0.268 OA
BRANCH  20  22
ATOM     22  C   UNL     1     -10.731  18.934  67.485  0.00  0.00    +0.151 C 
BRANCH  22  23
ATOM     23  C   UNL     1     -10.446  19.332  65.906  0.00  0.00    +0.206 C 
ATOM     24  O   UNL     1     -10.249  17.876  65.513  0.00  0.00    -0.218 OA
BRANCH  23  25
ATOM     25  C   UNL     1      -8.831  19.563  66.152  0.00  0.00    +0.217 C 
ATOM     26  O   UNL     1      -8.695  20.411  67.196  0.00  0.00    -0.218 OA
ENDBRANCH  23  25
ENDBRANCH  22  23
ENDBRANCH  20  22
ENDBRANCH   4  19
BRANCH   7  27
ATOM     27  C   UNL     1      -6.303  13.585  68.137  0.00  0.00    +0.266 C 
ATOM     28  N   UNL     1      -5.724  13.633  69.439  0.00  0.00    -0.199 NA
ATOM     29  O   UNL     1      -5.504  13.610  67.164  0.00  0.00    -0.268 OA
BRANCH  28  30
ATOM     30  C   UNL     1      -4.385  13.148  69.722  0.00  0.00    +0.151 C 
BRANCH  30  31
ATOM     31  C   UNL     1      -4.488  12.544  71.257  0.00  0.00    +0.206 C 
ATOM     32  O   UNL     1      -5.926  12.100  71.029  0.00  0.00    -0.218 OA
BRANCH  31  33
ATOM     33  C   UNL     1      -4.990  13.963  71.926  0.00  0.00    +0.217 C 
ATOM     34  O   UNL     1      -5.814  13.714  72.956  0.00  0.00    -0.218 OA
ENDBRANCH  31  33
ENDBRANCH  30  31
ENDBRANCH  28  30
ENDBRANCH   7  27
TORSDOF 12
ENDMDL
MODEL 4
REMARK VINA RESULT:      -5.7      3.629      8.061
REMARK  Name = 
REMARK  12 active torsions:
REMARK  status: ('A' for Active; 'I' for Inactive)
REMARK    1  A    between atoms: N_4  and  C_5
REMARK    2  A    between atoms: N_4  and  C_10
REMARK    3  A    between atoms: C_5  and  C_6
REMARK    4  A    between atoms: C_6  and  C_8
REMARK    5  A    between atoms: C_13  and  C_14
REMARK    6  A    between atoms: N_16  and  C_17
REMARK    7  A    between atoms: C_17  and  C_18
REMARK    8  A    between atoms: C_18  and  C_20
REMARK    9  A    between atoms: C_24  and  C_25
REMARK   10  A    between atoms: N_27  and  C_28
REMARK   11  A    between atoms: C_28  and  C_29
REMARK   12  A    between atoms: C_29  and  C_31
REMARK                            x       y       z     vdW  Elec       q    Type
REMARK                         _______ _______ _______ _____ _____    ______ ____
ROOT
ATOM      1  C   UNL     1      -6.232  15.575  67.972  0.00  0.00    +0.065 A 
ATOM      2  C   UNL     1      -5.806  16.882  67.748  0.00  0.00    +0.049 A 
ATOM      3  I   UNL     1      -3.834  17.104  67.034  0.00  0.00    -0.041 I 
ATOM      4  C   UNL     1      -6.622  17.976  67.754  0.00  0.00    +0.067 A 
ATOM      5  C   UNL     1      -7.980  17.741  67.882  0.00  0.00    +0.040 A 
ATOM      6  I   UNL     1      -9.312  19.326  68.159  0.00  0.00    -0.042 I 
ATOM      7  C   UNL     1      -8.482  16.462  67.729  0.00  0.00    +0.067 A 
ATOM      8  C   UNL     1      -7.610  15.415  67.954  0.00  0.00    +0.049 A 
ATOM      9  I   UNL     1      -8.291  13.482  67.692  0.00  0.00    -0.041 I 
ENDROOT
BRANCH   1  12
ATOM     10  C   UNL     1      -4.534  13.551  67.817  0.00  0.00    +0.095 C 
ATOM     11  C   UNL     1      -4.719  13.734  67.886  0.00  0.00    +0.230 C 
ATOM     12  N   UNL     1      -5.334  14.657  68.632  0.00  0.00    -0.255 N 
ATOM     13  O   UNL     1      -4.084  13.011  67.305  0.00  0.00    -0.275 OA
BRANCH  12  14
ATOM     14  C   UNL     1      -5.421  14.278  70.025  0.00  0.00    +0.134 C 
BRANCH  14  15
ATOM     15  C   UNL     1      -5.067  15.632  70.902  0.00  0.00    +0.205 C 
ATOM     16  O   UNL     1      -3.570  15.548  70.650  0.00  0.00    -0.218 OA
BRANCH  15  17
ATOM     17  C   UNL     1      -4.955  14.793  72.319  0.00  0.00    +0.217 C 
ATOM     18  O   UNL     1      -5.781  13.721  72.228  0.00  0.00    -0.218 OA
ENDBRANCH  15  17
ENDBRANCH  14  15
ENDBRANCH  12  14
ENDBRANCH   1  12
BRANCH   4  19
ATOM     19  C   UNL     1      -6.036  19.268  68.136  0.00  0.00    +0.266 C 
ATOM     20  N   UNL     1      -5.862  19.529  69.531  0.00  0.00    -0.199 NA
ATOM     21  O   UNL     1      -6.109  20.282  67.374  0.00  0.00    -0.268 OA
BRANCH  20  22
ATOM     22  C   UNL     1      -5.303  20.808  69.894  0.00  0.00    +0.151 C 
BRANCH  22  23
ATOM     23  C   UNL     1      -5.067  20.582  71.515  0.00  0.00    +0.206 C 
ATOM     24  O   UNL     1      -4.644  22.029  71.716  0.00  0.00    -0.218 OA
BRANCH  23  25
ATOM     25  C   UNL     1      -3.509  20.075  71.318  0.00  0.00    +0.217 C 
ATOM     26  O   UNL     1      -2.888  20.194  72.513  0.00  0.00    -0.218 OA
ENDBRANCH  23  25
ENDBRANCH  22  23
ENDBRANCH  20  22
ENDBRANCH   4  19
BRANCH   7  27
ATOM     27  C   UNL     1      -9.833  16.279  67.193  0.00  0.00    +0.266 C 
ATOM     28  N   UNL     1      -9.963  16.261  65.774  0.00  0.00    -0.199 NA
ATOM     29  O   UNL     1     -10.871  16.556  67.850  0.00  0.00    -0.268 OA
BRANCH  28  30
ATOM     30  C   UNL     1     -11.218  15.975  65.102  0.00  0.00    +0.151 C 
BRANCH  30  31
ATOM     31  C   UNL     1     -11.146  14.356  64.779  0.00  0.00    +0.206 C 
ATOM     32  O   UNL     1     -12.335  14.452  63.832  0.00  0.00    -0.218 OA
BRANCH  31  33
ATOM     33  C   UNL     1     -12.127  13.927  66.031  0.00  0.00    +0.217 C 
ATOM     34  O   UNL     1     -12.302  12.596  66.037  0.00  0.00    -0.218 OA
ENDBRANCH  31  33
ENDBRANCH  30  31
ENDBRANCH  28  30
ENDBRANCH   7  27
TORSDOF 12
ENDMDL
MODEL 5
REMARK VINA RESULT:      -5.7      4.895      9.539
REMARK  Name = 
REMARK  12 active torsions:
REMARK  status: ('A' for Active; 'I' for Inactive)
REMARK    1  A    between atoms: N_4  and  C_5
REMARK    2  A    between atoms: N_4  and  C_10
REMARK    3  A    between atoms: C_5  and  C_6
REMARK    4  A    between atoms: C_6  and  C_8
REMARK    5  A    between atoms: C_13  and  C_14
REMARK    6  A    between atoms: N_16  and  C_17
REMARK    7  A    between atoms: C_17  and  C_18
REMARK    8  A    between atoms: C_18  and  C_20
REMARK    9  A    between atoms: C_24  and  C_25
REMARK   10  A    between atoms: N_27  and  C_28
REMARK   11  A    between atoms: C_28  and  C_29
REMARK   12  A    between atoms: C_29  and  C_31
REMARK                            x       y       z     vdW  Elec       q    Type
REMARK                         _______ _______ _______ _____ _____    ______ ____
ROOT
ATOM      1  C   UNL     1      -6.373  16.992  68.003  0.00  0.00    +0.065 A 
ATOM      2  C   UNL     1      -6.222  17.883  66.943  0.00  0.00    +0.049 A 
ATOM      3  I   UNL     1      -4.354  17.851  65.966  0.00  0.00    -0.041 I 
ATOM      4  C   UNL     1      -7.240  18.595  66.378  0.00  0.00    +0.067 A 
ATOM      5  C   UNL     1      -8.519  18.320  66.827  0.00  0.00    +0.040 A 
ATOM      6  I   UNL     1     -10.132  19.507  66.234  0.00  0.00    -0.042 I 
ATOM      7  C   UNL     1      -8.760  17.196  67.593  0.00  0.00    +0.067 A 
ATOM      8  C   UNL     1      -7.691  16.675  68.296  0.00  0.00    +0.049 A 
ATOM      9  I   UNL     1      -7.981  14.966  69.421  0.00  0.00    -0.041 I 
ENDROOT
BRANCH   1  12
ATOM     10  C   UNL     1      -4.305  15.609  68.907  0.00  0.00    +0.095 C 
ATOM     11  C   UNL     1      -4.522  15.765  68.871  0.00  0.00    +0.230 C 
ATOM     12  N   UNL     1      -5.293  16.854  68.951  0.00  0.00    -0.255 N 
ATOM     13  O   UNL     1      -3.768  14.935  68.788  0.00  0.00    -0.275 OA
BRANCH  12  14
ATOM     14  C   UNL     1      -5.268  17.457  70.266  0.00  0.00    +0.134 C 
BRANCH  14  15
ATOM     15  C   UNL     1      -4.667  18.983  70.070  0.00  0.00    +0.205 C 
ATOM     16  O   UNL     1      -3.286  18.635  70.602  0.00  0.00    -0.218 OA
BRANCH  15  17
ATOM     17  C   UNL     1      -5.200  19.479  71.551  0.00  0.00    +0.217 C 
ATOM     18  O   UNL     1      -4.125  19.926  72.247  0.00  0.00    -0.218 OA
ENDBRANCH  15  17
ENDBRANCH  14  15
ENDBRANCH  12  14
ENDBRANCH   1  12
BRANCH   4  19
ATOM     19  C   UNL     1      -6.912  19.890  65.763  0.00  0.00    +0.266 C 
ATOM     20  N   UNL     1      -6.640  19.905  64.359  0.00  0.00    -0.199 NA
ATOM     21  O   UNL     1      -6.428  20.845  66.445  0.00  0.00    -0.268 OA
BRANCH  20  22
ATOM     22  C   UNL     1      -6.301  21.178  63.771  0.00  0.00    +0.151 C 
BRANCH  22  23
ATOM     23  C   UNL     1      -4.831  20.818  63.105  0.00  0.00    +0.206 C 
ATOM     24  O   UNL     1      -5.032  21.816  61.975  0.00  0.00    -0.218 OA
BRANCH  23  25
ATOM     25  C   UNL     1      -5.431  19.569  62.210  0.00  0.00    +0.217 C 
ATOM     26  O   UNL     1      -4.422  18.690  62.010  0.00  0.00    -0.218 OA
ENDBRANCH  23  25
ENDBRANCH  22  23
ENDBRANCH  20  22
ENDBRANCH   4  19
BRANCH   7  27
ATOM     27  C   UNL     1     -10.062  16.529  67.503  0.00  0.00    +0.266 C 
ATOM     28  N   UNL     1     -10.312  15.767  66.325  0.00  0.00    -0.199 NA
ATOM     29  O   UNL     1     -11.072  16.914  68.150  0.00  0.00    -0.268 OA
BRANCH  28  30
ATOM     30  C   UNL     1     -11.506  14.960  66.148  0.00  0.00    +0.151 C 
BRANCH  30  31
ATOM     31  C   UNL     1     -11.228  14.122  64.752  0.00  0.00    +0.206 C 
ATOM     32  O   UNL     1     -12.536  14.614  64.149  0.00  0.00    -0.218 OA
BRANCH  31  33
ATOM     33  C   UNL     1     -11.947  12.738  65.282  0.00  0.00    +0.217 C 
ATOM     34  O   UNL     1     -13.179  12.636  64.760  0.00  0.00    -0.218 OA
ENDBRANCH  31  33
ENDBRANCH  30  31
ENDBRANCH  28  30
ENDBRANCH   7  27
TORSDOF 12
ENDMDL
MODEL 6
REMARK VINA RESULT:      -5.6      3.424      8.184
REMARK  Name = 
REMARK  12 active torsions:
REMARK  status: ('A' for Active; 'I' for Inactive)
REMARK    1  A    between atoms: N_4  and  C_5
REMARK    2  A    between atoms: N_4  and  C_10
REMARK    3  A    between atoms: C_5  and  C_6
REMARK    4  A    between atoms: C_6  and  C_8
REMARK    5  A    between atoms: C_13  and  C_14
REMARK    6  A    between atoms: N_16  and  C_17
REMARK    7  A    between atoms: C_17  and  C_18
REMARK    8  A    between atoms: C_18  and  C_20
REMARK    9  A    between atoms: C_24  and  C_25
REMARK   10  A    between atoms: N_27  and  C_28
REMARK   11  A    between atoms: C_28  and  C_29
REMARK   12  A    between atoms: C_29  and  C_31
REMARK                            x       y       z     vdW  Elec       q    Type
REMARK                         _______ _______ _______ _____ _____    ______ ____
ROOT
ATOM      1  C   UNL     1      -7.339  17.429  68.035  0.00  0.00    +0.065 A 
ATOM      2  C   UNL     1      -6.652  16.275  68.404  0.00  0.00    +0.049 A 
ATOM      3  I   UNL     1      -4.723  16.561  69.207  0.00  0.00    -0.041 I 
ATOM      4  C   UNL     1      -7.209  15.031  68.478  0.00  0.00    +0.067 A 
ATOM      5  C   UNL     1      -8.576  14.947  68.277  0.00  0.00    +0.040 A 
ATOM      6  I   UNL     1      -9.513  13.087  68.113  0.00  0.00    -0.042 I 
ATOM      7  C   UNL     1      -9.352  16.090  68.284  0.00  0.00    +0.067 A 
ATOM      8  C   UNL     1      -8.717  17.281  67.987  0.00  0.00    +0.049 A 
ATOM      9  I   UNL     1      -9.816  19.030  68.029  0.00  0.00    -0.041 I 
ENDROOT
BRANCH   1  12
ATOM     10  C   UNL     1      -6.518  18.446  65.733  0.00  0.00    +0.095 C 
ATOM     11  C   UNL     1      -6.551  18.366  65.987  0.00  0.00    +0.230 C 
ATOM     12  N   UNL     1      -6.625  18.460  67.319  0.00  0.00    -0.255 N 
ATOM     13  O   UNL     1      -6.550  18.410  64.865  0.00  0.00    -0.275 OA
BRANCH  12  14
ATOM     14  C   UNL     1      -5.561  19.266  67.878  0.00  0.00    +0.134 C 
BRANCH  14  15
ATOM     15  C   UNL     1      -6.286  20.401  68.835  0.00  0.00    +0.205 C 
ATOM     16  O   UNL     1      -6.284  21.478  67.762  0.00  0.00    -0.218 OA
BRANCH  15  17
ATOM     17  C   UNL     1      -4.850  20.915  69.467  0.00  0.00    +0.217 C 
ATOM     18  O   UNL     1      -5.099  21.405  70.707  0.00  0.00    -0.218 OA
ENDBRANCH  15  17
ENDBRANCH  14  15
ENDBRANCH  12  14
ENDBRANCH   1  12
BRANCH   4  19
ATOM     19  C   UNL     1      -6.335  13.872  68.249  0.00  0.00    +0.266 C 
ATOM     20  N   UNL     1      -5.796  13.213  69.399  0.00  0.00    -0.199 NA
ATOM     21  O   UNL     1      -5.697  13.726  67.162  0.00  0.00    -0.268 OA
BRANCH  20  22
ATOM     22  C   UNL     1      -4.925  12.089  69.162  0.00  0.00    +0.151 C 
BRANCH  22  23
ATOM     23  C   UNL     1      -4.868  11.429  70.676  0.00  0.00    +0.206 C 
ATOM     24  O   UNL     1      -6.356  11.116  70.660  0.00  0.00    -0.218 OA
BRANCH  23  25
ATOM     25  C   UNL     1      -5.105  12.880  71.425  0.00  0.00    +0.217 C 
ATOM     26  O   UNL     1      -5.201  12.642  72.753  0.00  0.00    -0.218 OA
ENDBRANCH  23  25
ENDBRANCH  22  23
ENDBRANCH  20  22
ENDBRANCH   4  19
BRANCH   7  27
ATOM     27  C   UNL     1     -10.739  16.016  68.749  0.00  0.00    +0.266 C 
ATOM     28  N   UNL     1     -10.937  15.835  70.149  0.00  0.00    -0.199 NA
ATOM     29  O   UNL     1     -11.694  15.686  67.998  0.00  0.00    -0.268 OA
BRANCH  28  30
ATOM     30  C   UNL     1     -12.250  15.859  70.768  0.00  0.00    +0.151 C 
BRANCH  30  31
ATOM     31  C   UNL     1     -12.208  14.620  71.860  0.00  0.00    +0.206 C 
ATOM     32  O   UNL     1     -12.357  13.586  70.753  0.00  0.00    -0.218 OA
BRANCH  31  33
ATOM     33  C   UNL     1     -13.833  14.625  72.130  0.00  0.00    +0.217 C 
ATOM     34  O   UNL     1     -14.274  15.888  72.233  0.00  0.00    -0.218 OA
ENDBRANCH  31  33
ENDBRANCH  30  31
ENDBRANCH  28  30
ENDBRANCH   7  27
TORSDOF 12
ENDMDL
MODEL 7
REMARK VINA RESULT:      -5.6      4.451      8.682
REMARK  Name = 
REMARK  12 active torsions:
REMARK  status: ('A' for Active; 'I' for Inactive)
REMARK    1  A    between atoms: N_4  and  C_5
REMARK    2  A    between atoms: N_4  and  C_10
REMARK    3  A    between atoms: C_5  and  C_6
REMARK    4  A    between atoms: C_6  and  C_8
REMARK    5  A    between atoms: C_13  and  C_14
REMARK    6  A    between atoms: N_16  and  C_17
REMARK    7  A    between atoms: C_17  and  C_18
REMARK    8  A    between atoms: C_18  and  C_20
REMARK    9  A    between atoms: C_24  and  C_25
REMARK   10  A    between atoms: N_27  and  C_28
REMARK   11  A    between atoms: C_28  and  C_29
REMARK   12  A    between atoms: C_29  and  C_31
REMARK                            x       y       z     vdW  Elec       q    Type
REMARK                         _______ _______ _______ _____ _____    ______ ____
ROOT
ATOM      1  C   UNL     1     -10.844   9.104  69.674  0.00  0.00    +0.065 A 
ATOM      2  C   UNL     1     -10.258   8.238  68.754  0.00  0.00    +0.049 A 
ATOM      3  I   UNL     1     -10.827   6.213  68.895  0.00  0.00    -0.041 I 
ATOM      4  C   UNL     1      -9.532   8.636  67.669  0.00  0.00    +0.067 A 
ATOM      5  C   UNL     1      -9.477   9.996  67.418  0.00  0.00    +0.040 A 
ATOM      6  I   UNL     1      -8.202  10.756  65.949  0.00  0.00    -0.042 I 
ATOM      7  C   UNL     1     -10.339  10.858  68.069  0.00  0.00    +0.067 A 
ATOM      8  C   UNL     1     -10.859  10.433  69.276  0.00  0.00    +0.049 A 
ATOM      9  I   UNL     1     -12.191  11.659  70.271  0.00  0.00    -0.041 I 
ENDROOT
BRANCH   1  12
ATOM     10  C   UNL     1      -9.665   8.646  72.000  0.00  0.00    +0.095 C 
ATOM     11  C   UNL     1      -9.821   8.648  71.780  0.00  0.00    +0.230 C 
ATOM     12  N   UNL     1     -10.942   8.686  71.053  0.00  0.00    -0.255 N 
ATOM     13  O   UNL     1      -8.940   8.704  72.476  0.00  0.00    -0.275 OA
BRANCH  12  14
ATOM     14  C   UNL     1     -11.975   7.822  71.580  0.00  0.00    +0.134 C 
BRANCH  14  15
ATOM     15  C   UNL     1     -13.392   8.665  71.474  0.00  0.00    +0.205 C 
ATOM     16  O   UNL     1     -13.448   8.988  72.958  0.00  0.00    -0.218 OA
BRANCH  15  17
ATOM     17  C   UNL     1     -14.316   7.309  71.652  0.00  0.00    +0.217 C 
ATOM     18  O   UNL     1     -15.458   7.671  72.289  0.00  0.00    -0.218 OA
ENDBRANCH  15  17
ENDBRANCH  14  15
ENDBRANCH  12  14
ENDBRANCH   1  12
BRANCH   4  19
ATOM     19  C   UNL     1      -8.486   7.729  67.173  0.00  0.00    +0.266 C 
ATOM     20  N   UNL     1      -8.801   6.911  66.043  0.00  0.00    -0.199 NA
ATOM     21  O   UNL     1      -7.551   7.318  67.927  0.00  0.00    -0.268 OA
BRANCH  20  22
ATOM     22  C   UNL     1      -7.775   6.012  65.577  0.00  0.00    +0.151 C 
BRANCH  22  23
ATOM     23  C   UNL     1      -8.638   5.106  64.497  0.00  0.00    +0.206 C 
ATOM     24  O   UNL     1      -9.685   4.751  65.542  0.00  0.00    -0.218 OA
BRANCH  23  25
ATOM     25  C   UNL     1      -7.765   3.737  64.798  0.00  0.00    +0.217 C 
ATOM     26  O   UNL     1      -7.107   3.923  65.965  0.00  0.00    -0.218 OA
ENDBRANCH  23  25
ENDBRANCH  22  23
ENDBRANCH  20  22
ENDBRANCH   4  19
BRANCH   7  27
ATOM     27  C   UNL     1     -10.779  12.081  67.393  0.00  0.00    +0.266 C 
ATOM     28  N   UNL     1     -11.712  11.925  66.327  0.00  0.00    -0.199 NA
ATOM     29  O   UNL     1     -10.105  13.145  67.400  0.00  0.00    -0.268 OA
BRANCH  28  30
ATOM     30  C   UNL     1     -12.323  13.051  65.645  0.00  0.00    +0.151 C 
BRANCH  30  31
ATOM     31  C   UNL     1     -11.371  13.286  64.315  0.00  0.00    +0.206 C 
ATOM     32  O   UNL     1     -12.494  14.018  63.592  0.00  0.00    -0.218 OA
BRANCH  31  33
ATOM     33  C   UNL     1     -11.786  11.861  63.600  0.00  0.00    +0.217 C 
ATOM     34  O   UNL     1     -13.074  11.898  63.224  0.00  0.00    -0.218 OA
ENDBRANCH  31  33
ENDBRANCH  30  31
ENDBRANCH  28  30
ENDBRANCH   7  27
TORSDOF 12
ENDMDL
MODEL 8
REMARK VINA RESULT:      -5.4      3.272      5.569
REMARK  Name = 
REMARK  12 active torsions:
REMARK  status: ('A' for Active; 'I' for Inactive)
REMARK    1  A    between atoms: N_4  and  C_5
REMARK    2  A    between atoms: N_4  and  C_10
REMARK    3  A    between atoms: C_5  and  C_6
REMARK    4  A    between atoms: C_6  and  C_8
REMARK    5  A    between atoms: C_13  and  C_14
REMARK    6  A    between atoms: N_16  and  C_17
REMARK    7  A    between atoms: C_17  and  C_18
REMARK    8  A    between atoms: C_18  and  C_20
REMARK    9  A    between atoms: C_24  and  C_25
REMARK   10  A    between atoms: N_27  and  C_28
REMARK   11  A    between atoms: C_28  and  C_29
REMARK   12  A    between atoms: C_29  and  C_31
REMARK                            x       y       z     vdW  Elec       q    Type
REMARK                         _______ _______ _______ _____ _____    ______ ____
ROOT
ATOM      1  C   UNL     1      -9.966  13.588  66.807  0.00  0.00    +0.065 A 
ATOM      2  C   UNL     1      -9.216  12.455  66.500  0.00  0.00    +0.049 A 
ATOM      3  I   UNL     1     -10.070  11.132  65.097  0.00  0.00    -0.041 I 
ATOM      4  C   UNL     1      -7.917  12.260  66.870  0.00  0.00    +0.067 A 
ATOM      5  C   UNL     1      -7.282  13.318  67.498  0.00  0.00    +0.040 A 
ATOM      6  I   UNL     1      -5.386  13.071  68.339  0.00  0.00    -0.042 I 
ATOM      7  C   UNL     1      -7.852  14.576  67.488  0.00  0.00    +0.067 A 
ATOM      8  C   UNL     1      -9.220  14.644  67.311  0.00  0.00    +0.049 A 
ATOM      9  I   UNL     1     -10.122  16.502  67.238  0.00  0.00    -0.041 I 
ENDROOT
BRANCH   1  12
ATOM     10  C   UNL     1     -12.446  13.908  65.941  0.00  0.00    +0.095 C 
ATOM     11  C   UNL     1     -12.218  13.885  66.082  0.00  0.00    +0.230 C 
ATOM     12  N   UNL     1     -11.385  13.440  67.028  0.00  0.00    -0.255 N 
ATOM     13  O   UNL     1     -12.967  14.130  65.281  0.00  0.00    -0.275 OA
BRANCH  12  14
ATOM     14  C   UNL     1     -12.013  13.364  68.329  0.00  0.00    +0.134 C 
BRANCH  14  15
ATOM     15  C   UNL     1     -11.313  12.089  69.113  0.00  0.00    +0.205 C 
ATOM     16  O   UNL     1     -12.239  11.051  68.499  0.00  0.00    -0.218 OA
BRANCH  15  17
ATOM     17  C   UNL     1     -12.269  12.269  70.447  0.00  0.00    +0.217 C 
ATOM     18  O   UNL     1     -12.507  11.033  70.952  0.00  0.00    -0.218 OA
ENDBRANCH  15  17
ENDBRANCH  14  15
ENDBRANCH  12  14
ENDBRANCH   1  12
BRANCH   4  19
ATOM     19  C   UNL     1      -7.457  10.877  67.060  0.00  0.00    +0.266 C 
ATOM     20  N   UNL     1      -7.891  10.191  68.238  0.00  0.00    -0.199 NA
ATOM     21  O   UNL     1      -6.392  10.451  66.516  0.00  0.00    -0.268 OA
BRANCH  20  22
ATOM     22  C   UNL     1      -7.418   8.842  68.422  0.00  0.00    +0.151 C 
BRANCH  22  23
ATOM     23  C   UNL     1      -8.697   8.185  69.239  0.00  0.00    +0.206 C 
ATOM     24  O   UNL     1      -9.690   8.677  68.198  0.00  0.00    -0.218 OA
BRANCH  23  25
ATOM     25  C   UNL     1      -8.908   9.523  70.183  0.00  0.00    +0.217 C 
ATOM     26  O   UNL     1      -9.689   9.164  71.227  0.00  0.00    -0.218 OA
ENDBRANCH  23  25
ENDBRANCH  22  23
ENDBRANCH  20  22
ENDBRANCH   4  19
BRANCH   7  27
ATOM     27  C   UNL     1      -6.986  15.758  67.502  0.00  0.00    +0.266 C 
ATOM     28  N   UNL     1      -6.990  16.541  68.693  0.00  0.00    -0.199 NA
ATOM     29  O   UNL     1      -6.600  16.334  66.451  0.00  0.00    -0.268 OA
BRANCH  28  30
ATOM     30  C   UNL     1      -6.100  17.670  68.896  0.00  0.00    +0.151 C 
BRANCH  30  31
ATOM     31  C   UNL     1      -7.114  18.966  69.044  0.00  0.00    +0.206 C 
ATOM     32  O   UNL     1      -6.788  19.434  67.633  0.00  0.00    -0.218 OA
BRANCH  31  33
ATOM     33  C   UNL     1      -5.967  19.961  69.683  0.00  0.00    +0.217 C 
ATOM     34  O   UNL     1      -6.374  20.419  70.877  0.00  0.00    -0.218 OA
ENDBRANCH  31  33
ENDBRANCH  30  31
ENDBRANCH  28  30
ENDBRANCH   7  27
TORSDOF 12
ENDMDL
MODEL 9
REMARK VINA RESULT:      -5.4      3.674      8.147
REMARK  Name = 
REMARK  12 active torsions:
REMARK  status: ('A' for Active; 'I' for Inactive)
REMARK    1  A    between atoms: N_4  and  C_5
REMARK    2  A    between atoms: N_4  and  C_10
REMARK    3  A    between atoms: C_5  and  C_6
REMARK    4  A    between atoms: C_6  and  C_8
REMARK    5  A    between atoms: C_13  and  C_14
REMARK    6  A    between atoms: N_16  and  C_17
REMARK    7  A    between atoms: C_17  and  C_18
REMARK    8  A    between atoms: C_18  and  C_20
REMARK    9  A    between atoms: C_24  and  C_25
REMARK   10  A    between atoms: N_27  and  C_28
REMARK   11  A    between atoms: C_28  and  C_29
REMARK   12  A    between atoms: C_29  and  C_31
REMARK                            x       y       z     vdW  Elec       q    Type
REMARK                         _______ _______ _______ _____ _____    ______ ____
ROOT
ATOM      1  C   UNL     1      -7.080  17.814  68.734  0.00  0.00    +0.065 A 
ATOM      2  C   UNL     1      -6.403  16.636  69.042  0.00  0.00    +0.049 A 
ATOM      3  I   UNL     1      -4.643  16.849  70.182  0.00  0.00    -0.041 I 
ATOM      4  C   UNL     1      -6.903  15.381  68.845  0.00  0.00    +0.067 A 
ATOM      5  C   UNL     1      -8.215  15.291  68.413  0.00  0.00    +0.040 A 
ATOM      6  I   UNL     1      -9.020  13.454  67.834  0.00  0.00    -0.042 I 
ATOM      7  C   UNL     1      -9.038  16.401  68.456  0.00  0.00    +0.067 A 
ATOM      8  C   UNL     1      -8.424  17.638  68.440  0.00  0.00    +0.049 A 
ATOM      9  I   UNL     1      -9.602  19.332  68.551  0.00  0.00    -0.041 I 
ENDROOT
BRANCH   1  12
ATOM     10  C   UNL     1      -6.094  20.216  69.248  0.00  0.00    +0.095 C 
ATOM     11  C   UNL     1      -6.197  19.992  69.140  0.00  0.00    +0.230 C 
ATOM     12  N   UNL     1      -6.315  18.959  68.300  0.00  0.00    -0.255 N 
ATOM     13  O   UNL     1      -5.963  20.842  69.837  0.00  0.00    -0.275 OA
BRANCH  12  14
ATOM     14  C   UNL     1      -6.114  19.341  66.919  0.00  0.00    +0.134 C 
BRANCH  14  15
ATOM     15  C   UNL     1      -4.855  18.429  66.359  0.00  0.00    +0.205 C 
ATOM     16  O   UNL     1      -3.851  19.569  66.415  0.00  0.00    -0.218 OA
BRANCH  15  17
ATOM     17  C   UNL     1      -5.226  18.727  64.778  0.00  0.00    +0.217 C 
ATOM     18  O   UNL     1      -6.578  18.725  64.666  0.00  0.00    -0.218 OA
ENDBRANCH  15  17
ENDBRANCH  14  15
ENDBRANCH  12  14
ENDBRANCH   1  12
BRANCH   4  19
ATOM     19  C   UNL     1      -5.946  14.292  68.599  0.00  0.00    +0.266 C 
ATOM     20  N   UNL     1      -5.561  13.486  69.716  0.00  0.00    -0.199 NA
ATOM     21  O   UNL     1      -5.140  14.325  67.619  0.00  0.00    -0.268 OA
BRANCH  20  22
ATOM     22  C   UNL     1      -4.608  12.433  69.466  0.00  0.00    +0.151 C 
BRANCH  22  23
ATOM     23  C   UNL     1      -4.769  11.547  70.853  0.00  0.00    +0.206 C 
ATOM     24  O   UNL     1      -6.265  11.374  70.639  0.00  0.00    -0.218 OA
BRANCH  23  25
ATOM     25  C   UNL     1      -4.984  12.883  71.798  0.00  0.00    +0.217 C 
ATOM     26  O   UNL     1      -4.919  12.483  73.089  0.00  0.00    -0.218 OA
ENDBRANCH  23  25
ENDBRANCH  22  23
ENDBRANCH  20  22
ENDBRANCH   4  19
BRANCH   7  27
ATOM     27  C   UNL     1     -10.476  16.222  68.673  0.00  0.00    +0.266 C 
ATOM     28  N   UNL     1     -10.884  15.841  69.984  0.00  0.00    -0.199 NA
ATOM     29  O   UNL     1     -11.281  15.972  67.737  0.00  0.00    -0.268 OA
BRANCH  28  30
ATOM     30  C   UNL     1     -12.278  15.740  70.376  0.00  0.00    +0.151 C 
BRANCH  30  31
ATOM     31  C   UNL     1     -12.256  14.769  71.713  0.00  0.00    +0.206 C 
ATOM     32  O   UNL     1     -12.173  13.517  70.851  0.00  0.00    -0.218 OA
BRANCH  31  33
ATOM     33  C   UNL     1     -13.895  14.641  71.812  0.00  0.00    +0.217 C 
ATOM     34  O   UNL     1     -14.225  13.548  72.518  0.00  0.00    -0.218 OA
ENDBRANCH  31  33
ENDBRANCH  30  31
ENDBRANCH  28  30
ENDBRANCH   7  27
TORSDOF 12
ENDMDL
