MODEL 1
REMARK VINA RESULT:      -6.7      0.000      0.000
REMARK  Name = 
REMARK  1 active torsions:
REMARK  status: ('A' for Active; 'I' for Inactive)
REMARK    1  A    between atoms: O_2  and  C_3
REMARK                            x       y       z     vdW  Elec       q    Type
REMARK                         _______ _______ _______ _____ _____    ______ ____
ROOT
ATOM      1  C   UNL     1     -12.015  13.396  65.610  0.00  0.00    +0.172 A 
ATOM      2  C   UNL     1     -11.606  14.610  66.171  0.00  0.00    +0.168 A 
ATOM      3  O   UNL     1     -10.785  15.597  65.610  0.00  0.00    -0.476 OA
ATOM      4  C   UNL     1      -9.540  15.586  66.539  0.00  0.00    +0.176 C 
ATOM      5  C   UNL     1     -10.520  15.773  67.829  0.00  0.00    +0.078 C 
ATOM      6  C   UNL     1      -9.817  15.292  69.097  0.00  0.00    +0.029 C 
ATOM      7  C   UNL     1     -10.940  15.607  70.101  0.00  0.00    +0.073 C 
ATOM      8  N   UNL     1     -11.713  14.490  70.479  0.00  0.00    -0.268 NA
ATOM      9  C   UNL     1     -11.539  13.310  69.698  0.00  0.00    +0.099 C 
ATOM     10  C   UNL     1     -11.814  13.569  68.247  0.00  0.00    -0.007 A 
ATOM     11  C   UNL     1     -11.740  12.307  67.663  0.00  0.00    +0.000 A 
ATOM     12  C   UNL     1     -13.124  14.711  70.675  0.00  0.00    +0.090 C 
ATOM     13  C   UNL     1     -10.755  17.123  68.151  0.00  0.00    -0.021 C 
ATOM     14  C   UNL     1      -9.620  17.784  68.514  0.00  0.00    +0.002 C 
ATOM     15  C   UNL     1      -8.332  17.321  67.615  0.00  0.00    +0.177 C 
ATOM     16  O   UNL     1      -7.947  18.765  67.295  0.00  0.00    -0.218 OA
ATOM     17  C   UNL     1      -9.293  17.204  66.269  0.00  0.00    +0.082 C 
ATOM     18  C   UNL     1     -11.492  14.742  67.556  0.00  0.00    +0.019 A 
ATOM     19  C   UNL     1     -11.876  12.201  66.308  0.00  0.00    +0.040 A 
ENDROOT
BRANCH   1  21
ATOM     20  C   UNL     1     -12.420  12.268  63.486  0.00  0.00    +0.253 C 
ATOM     21  O   UNL     1     -12.397  13.327  64.287  0.00  0.00    -0.468 OA
ENDBRANCH   1  21
TORSDOF 1
ENDMDL
MODEL 2
REMARK VINA RESULT:      -6.6      2.719      5.657
REMARK  Name = 
REMARK  1 active torsions:
REMARK  status: ('A' for Active; 'I' for Inactive)
REMARK    1  A    between atoms: O_2  and  C_3
REMARK                            x       y       z     vdW  Elec       q    Type
REMARK                         _______ _______ _______ _____ _____    ______ ____
ROOT
ATOM      1  C   UNL     1     -11.835  15.640  69.755  0.00  0.00    +0.172 A 
ATOM      2  C   UNL     1     -11.907  14.556  68.876  0.00  0.00    +0.168 A 
ATOM      3  O   UNL     1     -11.980  13.190  69.181  0.00  0.00    -0.476 OA
ATOM      4  C   UNL     1     -10.651  12.630  68.605  0.00  0.00    +0.176 C 
ATOM      5  C   UNL     1     -11.004  13.313  67.166  0.00  0.00    +0.078 C 
ATOM      6  C   UNL     1      -9.728  13.508  66.349  0.00  0.00    +0.029 C 
ATOM      7  C   UNL     1     -10.367  14.122  65.091  0.00  0.00    +0.073 C 
ATOM      8  N   UNL     1     -10.263  15.525  65.011  0.00  0.00    -0.268 NA
ATOM      9  C   UNL     1      -9.841  16.195  66.197  0.00  0.00    +0.099 C 
ATOM     10  C   UNL     1     -10.746  15.883  67.352  0.00  0.00    -0.007 A 
ATOM     11  C   UNL     1     -10.284  16.713  68.370  0.00  0.00    +0.000 A 
ATOM     12  C   UNL     1     -11.391  16.232  64.458  0.00  0.00    +0.090 C 
ATOM     13  C   UNL     1     -11.736  12.461  66.317  0.00  0.00    -0.021 C 
ATOM     14  C   UNL     1     -11.045  11.336  65.976  0.00  0.00    +0.002 C 
ATOM     15  C   UNL     1     -10.164  10.760  67.230  0.00  0.00    +0.177 C 
ATOM     16  O   UNL     1     -10.710   9.343  67.055  0.00  0.00    -0.218 OA
ATOM     17  C   UNL     1     -11.372  11.170  68.290  0.00  0.00    +0.082 C 
ATOM     18  C   UNL     1     -11.349  14.645  67.600  0.00  0.00    +0.019 A 
ATOM     19  C   UNL     1     -10.860  16.622  69.605  0.00  0.00    +0.040 A 
ENDROOT
BRANCH   1  21
ATOM     20  C   UNL     1     -12.248  15.996  72.132  0.00  0.00    +0.253 C 
ATOM     21  O   UNL     1     -12.608  15.672  70.896  0.00  0.00    -0.468 OA
ENDBRANCH   1  21
TORSDOF 1
ENDMDL
MODEL 3
REMARK VINA RESULT:      -6.5      2.119      5.238
REMARK  Name = 
REMARK  1 active torsions:
REMARK  status: ('A' for Active; 'I' for Inactive)
REMARK    1  A    between atoms: O_2  and  C_3
REMARK                            x       y       z     vdW  Elec       q    Type
REMARK                         _______ _______ _______ _____ _____    ______ ____
ROOT
ATOM      1  C   UNL     1     -10.113  17.333  66.369  0.00  0.00    +0.172 A 
ATOM      2  C   UNL     1     -10.229  16.132  65.663  0.00  0.00    +0.168 A 
ATOM      3  O   UNL     1     -11.187  15.773  64.705  0.00  0.00    -0.476 OA
ATOM      4  C   UNL     1     -11.942  14.599  65.386  0.00  0.00    +0.176 C 
ATOM      5  C   UNL     1     -10.515  13.851  65.645  0.00  0.00    +0.078 C 
ATOM      6  C   UNL     1     -10.647  12.847  66.788  0.00  0.00    +0.029 C 
ATOM      7  C   UNL     1      -9.205  12.311  66.774  0.00  0.00    +0.073 C 
ATOM      8  N   UNL     1      -8.370  12.861  67.767  0.00  0.00    -0.268 NA
ATOM      9  C   UNL     1      -8.875  14.006  68.452  0.00  0.00    +0.099 C 
ATOM     10  C   UNL     1      -9.212  15.110  67.495  0.00  0.00    -0.007 A 
ATOM     11  C   UNL     1      -9.547  16.178  68.324  0.00  0.00    +0.000 A 
ATOM     12  C   UNL     1      -6.998  13.109  67.401  0.00  0.00    +0.090 C 
ATOM     13  C   UNL     1     -10.139  13.002  64.587  0.00  0.00    -0.021 C 
ATOM     14  C   UNL     1     -11.011  11.971  64.402  0.00  0.00    +0.002 C 
ATOM     15  C   UNL     1     -12.564  12.440  64.625  0.00  0.00    +0.177 C 
ATOM     16  O   UNL     1     -13.015  11.821  63.302  0.00  0.00    -0.218 OA
ATOM     17  C   UNL     1     -12.242  13.903  63.911  0.00  0.00    +0.082 C 
ATOM     18  C   UNL     1      -9.763  14.940  66.220  0.00  0.00    +0.019 A 
ATOM     19  C   UNL     1      -9.980  17.341  67.754  0.00  0.00    +0.040 A 
ENDROOT
BRANCH   1  21
ATOM     20  C   UNL     1     -10.459  19.745  66.276  0.00  0.00    +0.253 C 
ATOM     21  O   UNL     1     -10.309  18.542  65.736  0.00  0.00    -0.468 OA
ENDBRANCH   1  21
TORSDOF 1
ENDMDL
MODEL 4
REMARK VINA RESULT:      -6.2      2.395      4.406
REMARK  Name = 
REMARK  1 active torsions:
REMARK  status: ('A' for Active; 'I' for Inactive)
REMARK    1  A    between atoms: O_2  and  C_3
REMARK                            x       y       z     vdW  Elec       q    Type
REMARK                         _______ _______ _______ _____ _____    ______ ____
ROOT
ATOM      1  C   UNL     1     -11.689  14.962  71.321  0.00  0.00    +0.172 A 
ATOM      2  C   UNL     1     -10.896  15.385  70.250  0.00  0.00    +0.168 A 
ATOM      3  O   UNL     1     -10.671  16.691  69.794  0.00  0.00    -0.476 OA
ATOM      4  C   UNL     1     -11.299  16.680  68.374  0.00  0.00    +0.176 C 
ATOM      5  C   UNL     1     -10.404  15.367  68.005  0.00  0.00    +0.078 C 
ATOM      6  C   UNL     1     -11.041  14.606  66.844  0.00  0.00    +0.029 C 
ATOM      7  C   UNL     1      -9.996  13.483  66.721  0.00  0.00    +0.073 C 
ATOM      8  N   UNL     1     -10.375  12.266  67.321  0.00  0.00    -0.268 NA
ATOM      9  C   UNL     1     -11.517  12.313  68.175  0.00  0.00    +0.099 C 
ATOM     10  C   UNL     1     -11.333  13.312  69.278  0.00  0.00    -0.007 A 
ATOM     11  C   UNL     1     -12.455  13.130  70.083  0.00  0.00    +0.000 A 
ATOM     12  C   UNL     1      -9.338  11.511  67.979  0.00  0.00    +0.090 C 
ATOM     13  C   UNL     1      -9.150  15.693  67.454  0.00  0.00    -0.021 C 
ATOM     14  C   UNL     1      -9.252  16.354  66.266  0.00  0.00    +0.002 C 
ATOM     15  C   UNL     1     -10.500  17.415  66.265  0.00  0.00    +0.177 C 
ATOM     16  O   UNL     1      -9.622  18.555  65.750  0.00  0.00    -0.218 OA
ATOM     17  C   UNL     1     -10.195  17.800  67.849  0.00  0.00    +0.082 C 
ATOM     18  C   UNL     1     -10.681  14.544  69.158  0.00  0.00    +0.019 A 
ATOM     19  C   UNL     1     -12.632  13.952  71.159  0.00  0.00    +0.040 A 
ENDROOT
BRANCH   1  21
ATOM     20  C   UNL     1     -12.439  15.453  73.589  0.00  0.00    +0.253 C 
ATOM     21  O   UNL     1     -11.687  15.654  72.513  0.00  0.00    -0.468 OA
ENDBRANCH   1  21
TORSDOF 1
ENDMDL
MODEL 5
REMARK VINA RESULT:      -6.1      2.536      4.808
REMARK  Name = 
REMARK  1 active torsions:
REMARK  status: ('A' for Active; 'I' for Inactive)
REMARK    1  A    between atoms: O_2  and  C_3
REMARK                            x       y       z     vdW  Elec       q    Type
REMARK                         _______ _______ _______ _____ _____    ______ ____
ROOT
ATOM      1  C   UNL     1     -12.154  14.865  71.794  0.00  0.00    +0.172 A 
ATOM      2  C   UNL     1     -11.360  14.868  70.643  0.00  0.00    +0.168 A 
ATOM      3  O   UNL     1     -11.039  15.947  69.808  0.00  0.00    -0.476 OA
ATOM      4  C   UNL     1     -11.709  15.560  68.461  0.00  0.00    +0.176 C 
ATOM      5  C   UNL     1     -10.941  14.121  68.510  0.00  0.00    +0.078 C 
ATOM      6  C   UNL     1     -11.676  13.103  67.640  0.00  0.00    +0.029 C 
ATOM      7  C   UNL     1     -10.735  11.906  67.863  0.00  0.00    +0.073 C 
ATOM      8  N   UNL     1     -11.198  10.970  68.809  0.00  0.00    -0.268 NA
ATOM      9  C   UNL     1     -12.305  11.378  69.610  0.00  0.00    +0.099 C 
ATOM     10  C   UNL     1     -12.003  12.646  70.354  0.00  0.00    -0.007 A 
ATOM     11  C   UNL     1     -13.110  12.820  71.179  0.00  0.00    +0.000 A 
ATOM     12  C   UNL     1     -10.209  10.361  69.663  0.00  0.00    +0.090 C 
ATOM     13  C   UNL     1      -9.682  14.148  67.881  0.00  0.00    -0.021 C 
ATOM     14  C   UNL     1      -9.763  14.422  66.548  0.00  0.00    +0.002 C 
ATOM     15  C   UNL     1     -10.915  15.541  66.226  0.00  0.00    +0.177 C 
ATOM     16  O   UNL     1      -9.960  16.385  65.384  0.00  0.00    -0.218 OA
ATOM     17  C   UNL     1     -10.530  16.362  67.615  0.00  0.00    +0.082 C 
ATOM     18  C   UNL     1     -11.251  13.718  69.860  0.00  0.00    +0.019 A 
ATOM     19  C   UNL     1     -13.184  13.943  71.952  0.00  0.00    +0.040 A 
ENDROOT
BRANCH   1  21
ATOM     20  C   UNL     1     -12.507  15.917  73.965  0.00  0.00    +0.253 C 
ATOM     21  O   UNL     1     -12.056  15.884  72.717  0.00  0.00    -0.468 OA
ENDBRANCH   1  21
TORSDOF 1
ENDMDL
MODEL 6
REMARK VINA RESULT:      -6.1      2.627      5.162
REMARK  Name = 
REMARK  1 active torsions:
REMARK  status: ('A' for Active; 'I' for Inactive)
REMARK    1  A    between atoms: O_2  and  C_3
REMARK                            x       y       z     vdW  Elec       q    Type
REMARK                         _______ _______ _______ _____ _____    ______ ____
ROOT
ATOM      1  C   UNL     1     -12.392  14.438  71.427  0.00  0.00    +0.172 A 
ATOM      2  C   UNL     1     -11.625  14.166  70.290  0.00  0.00    +0.168 A 
ATOM      3  O   UNL     1     -11.387  14.989  69.181  0.00  0.00    -0.476 OA
ATOM      4  C   UNL     1     -12.061  14.212  68.017  0.00  0.00    +0.176 C 
ATOM      5  C   UNL     1     -11.206  12.884  68.429  0.00  0.00    +0.078 C 
ATOM      6  C   UNL     1     -11.896  11.629  67.898  0.00  0.00    +0.029 C 
ATOM      7  C   UNL     1     -10.879  10.591  68.405  0.00  0.00    +0.073 C 
ATOM      8  N   UNL     1     -11.265   9.928  69.588  0.00  0.00    -0.268 NA
ATOM      9  C   UNL     1     -12.377  10.482  70.287  0.00  0.00    +0.099 C 
ATOM     10  C   UNL     1     -12.137  11.919  70.644  0.00  0.00    -0.007 A 
ATOM     11  C   UNL     1     -13.235  12.255  71.431  0.00  0.00    +0.000 A 
ATOM     12  C   UNL     1     -10.223   9.630  70.538  0.00  0.00    +0.090 C 
ATOM     13  C   UNL     1      -9.964  12.804  67.770  0.00  0.00    -0.021 C 
ATOM     14  C   UNL     1     -10.091  12.696  66.417  0.00  0.00    +0.002 C 
ATOM     15  C   UNL     1     -11.315  13.620  65.844  0.00  0.00    +0.177 C 
ATOM     16  O   UNL     1     -10.431  14.250  64.769  0.00  0.00    -0.218 OA
ATOM     17  C   UNL     1     -10.951  14.811  66.940  0.00  0.00    +0.082 C 
ATOM     18  C   UNL     1     -11.463  12.852  69.848  0.00  0.00    +0.019 A 
ATOM     19  C   UNL     1     -13.361  13.543  71.869  0.00  0.00    +0.040 A 
ENDROOT
BRANCH   1  21
ATOM     20  C   UNL     1     -12.544  15.985  73.306  0.00  0.00    +0.253 C 
ATOM     21  O   UNL     1     -12.337  15.675  72.032  0.00  0.00    -0.468 OA
ENDBRANCH   1  21
TORSDOF 1
ENDMDL
MODEL 7
REMARK VINA RESULT:      -6.0      2.772      4.275
REMARK  Name = 
REMARK  1 active torsions:
REMARK  status: ('A' for Active; 'I' for Inactive)
REMARK    1  A    between atoms: O_2  and  C_3
REMARK                            x       y       z     vdW  Elec       q    Type
REMARK                         _______ _______ _______ _____ _____    ______ ____
ROOT
ATOM      1  C   UNL     1     -11.533  15.677  69.203  0.00  0.00    +0.172 A 
ATOM      2  C   UNL     1     -10.427  16.527  69.108  0.00  0.00    +0.168 A 
ATOM      3  O   UNL     1     -10.404  17.928  69.070  0.00  0.00    -0.476 OA
ATOM      4  C   UNL     1      -9.839  18.232  67.655  0.00  0.00    +0.176 C 
ATOM      5  C   UNL     1      -8.568  17.259  67.971  0.00  0.00    +0.078 C 
ATOM      6  C   UNL     1      -7.937  16.779  66.666  0.00  0.00    +0.029 C 
ATOM      7  C   UNL     1      -6.799  15.938  67.271  0.00  0.00    +0.073 C 
ATOM      8  N   UNL     1      -7.050  14.552  67.297  0.00  0.00    -0.268 NA
ATOM      9  C   UNL     1      -8.391  14.149  67.026  0.00  0.00    +0.099 C 
ATOM     10  C   UNL     1      -9.358  14.793  67.975  0.00  0.00    -0.007 A 
ATOM     11  C   UNL     1     -10.576  14.192  67.668  0.00  0.00    +0.000 A 
ATOM     12  C   UNL     1      -6.573  13.824  68.446  0.00  0.00    +0.090 C 
ATOM     13  C   UNL     1      -7.485  17.942  68.556  0.00  0.00    -0.021 C 
ATOM     14  C   UNL     1      -6.960  18.898  67.738  0.00  0.00    +0.002 C 
ATOM     15  C   UNL     1      -8.124  19.683  66.895  0.00  0.00    +0.177 C 
ATOM     16  O   UNL     1      -7.582  21.056  67.289  0.00  0.00    -0.218 OA
ATOM     17  C   UNL     1      -9.136  19.628  68.208  0.00  0.00    +0.082 C 
ATOM     18  C   UNL     1      -9.261  16.097  68.473  0.00  0.00    +0.019 A 
ATOM     19  C   UNL     1     -11.699  14.616  68.319  0.00  0.00    +0.040 A 
ENDROOT
BRANCH   1  21
ATOM     20  C   UNL     1     -12.743  15.609  71.319  0.00  0.00    +0.253 C 
ATOM     21  O   UNL     1     -12.576  15.975  70.053  0.00  0.00    -0.468 OA
ENDBRANCH   1  21
TORSDOF 1
ENDMDL
MODEL 8
REMARK VINA RESULT:      -5.9      3.374      6.136
REMARK  Name = 
REMARK  1 active torsions:
REMARK  status: ('A' for Active; 'I' for Inactive)
REMARK    1  A    between atoms: O_2  and  C_3
REMARK                            x       y       z     vdW  Elec       q    Type
REMARK                         _______ _______ _______ _____ _____    ______ ____
ROOT
ATOM      1  C   UNL     1     -11.912  14.013  68.540  0.00  0.00    +0.172 A 
ATOM      2  C   UNL     1     -11.588  12.689  68.227  0.00  0.00    +0.168 A 
ATOM      3  O   UNL     1     -11.025  11.710  69.057  0.00  0.00    -0.476 OA
ATOM      4  C   UNL     1      -9.648  11.436  68.393  0.00  0.00    +0.176 C 
ATOM      5  C   UNL     1     -10.404  11.171  66.971  0.00  0.00    +0.078 C 
ATOM      6  C   UNL     1      -9.429  11.371  65.812  0.00  0.00    +0.029 C 
ATOM      7  C   UNL     1     -10.392  11.040  64.659  0.00  0.00    +0.073 C 
ATOM      8  N   UNL     1     -10.922  12.168  64.000  0.00  0.00    -0.268 NA
ATOM      9  C   UNL     1     -10.721  13.425  64.644  0.00  0.00    +0.099 C 
ATOM     10  C   UNL     1     -11.280  13.422  66.036  0.00  0.00    -0.007 A 
ATOM     11  C   UNL     1     -11.131  14.740  66.457  0.00  0.00    +0.000 A 
ATOM     12  C   UNL     1     -12.293  12.085  63.565  0.00  0.00    +0.090 C 
ATOM     13  C   UNL     1     -10.768   9.824  66.784  0.00  0.00    -0.021 C 
ATOM     14  C   UNL     1      -9.692   8.989  66.734  0.00  0.00    +0.002 C 
ATOM     15  C   UNL     1      -8.528   9.431  67.798  0.00  0.00    +0.177 C 
ATOM     16  O   UNL     1      -8.414   8.018  68.368  0.00  0.00    -0.218 OA
ATOM     17  C   UNL     1      -9.684   9.860  68.908  0.00  0.00    +0.082 C 
ATOM     18  C   UNL     1     -11.253  12.337  66.919  0.00  0.00    +0.019 A 
ATOM     19  C   UNL     1     -11.485  15.065  67.736  0.00  0.00    +0.040 A 
ENDROOT
BRANCH   1  21
ATOM     20  C   UNL     1     -12.430  15.455  70.437  0.00  0.00    +0.253 C 
ATOM     21  O   UNL     1     -12.505  14.325  69.745  0.00  0.00    -0.468 OA
ENDBRANCH   1  21
TORSDOF 1
ENDMDL
MODEL 9
REMARK VINA RESULT:      -5.8      2.645      4.708
REMARK  Name = 
REMARK  1 active torsions:
REMARK  status: ('A' for Active; 'I' for Inactive)
REMARK    1  A    between atoms: O_2  and  C_3
REMARK                            x       y       z     vdW  Elec       q    Type
REMARK                         _______ _______ _______ _____ _____    ______ ____
ROOT
ATOM      1  C   UNL     1     -12.056  12.874  70.344  0.00  0.00    +0.172 A 
ATOM      2  C   UNL     1     -11.392  13.450  69.256  0.00  0.00    +0.168 A 
ATOM      3  O   UNL     1     -11.657  14.670  68.620  0.00  0.00    -0.476 OA
ATOM      4  C   UNL     1     -12.086  14.236  67.192  0.00  0.00    +0.176 C 
ATOM      5  C   UNL     1     -10.714  13.363  67.062  0.00  0.00    +0.078 C 
ATOM      6  C   UNL     1     -10.882  12.275  66.002  0.00  0.00    +0.029 C 
ATOM      7  C   UNL     1      -9.472  11.665  66.092  0.00  0.00    +0.073 C 
ATOM      8  N   UNL     1      -9.398  10.480  66.851  0.00  0.00    -0.268 NA
ATOM      9  C   UNL     1     -10.544  10.164  67.639  0.00  0.00    +0.099 C 
ATOM     10  C   UNL     1     -10.879  11.277  68.588  0.00  0.00    -0.007 A 
ATOM     11  C   UNL     1     -11.910  10.754  69.363  0.00  0.00    +0.000 A 
ATOM     12  C   UNL     1      -8.217  10.294  67.657  0.00  0.00    +0.090 C 
ATOM     13  C   UNL     1      -9.643  14.099  66.521  0.00  0.00    -0.021 C 
ATOM     14  C   UNL     1      -9.880  14.514  65.244  0.00  0.00    +0.002 C 
ATOM     15  C   UNL     1     -11.438  14.971  65.032  0.00  0.00    +0.177 C 
ATOM     16  O   UNL     1     -11.035  16.298  64.390  0.00  0.00    -0.218 OA
ATOM     17  C   UNL     1     -11.467  15.635  66.552  0.00  0.00    +0.082 C 
ATOM     18  C   UNL     1     -10.756  12.643  68.312  0.00  0.00    +0.019 A 
ATOM     19  C   UNL     1     -12.503  11.557  70.295  0.00  0.00    +0.040 A 
ENDROOT
BRANCH   1  21
ATOM     20  C   UNL     1     -13.567  13.578  72.123  0.00  0.00    +0.253 C 
ATOM     21  O   UNL     1     -12.444  13.645  71.418  0.00  0.00    -0.468 OA
ENDBRANCH   1  21
TORSDOF 1
ENDMDL
