MODEL 1
REMARK VINA RESULT:      -4.1      0.000      0.000
REMARK  Name = 
REMARK  3 active torsions:
REMARK  status: ('A' for Active; 'I' for Inactive)
REMARK    1  A    between atoms: C_2  and  C_3
REMARK    2  A    between atoms: C_2  and  C_5
REMARK    3  A    between atoms: C_2  and  C_7
REMARK                            x       y       z     vdW  Elec       q    Type
REMARK                         _______ _______ _______ _____ _____    ______ ____
ROOT
ATOM      1  N   UNL     1     -14.215  15.947  72.515  0.00  0.00    -0.126 NA
ATOM      2  C   UNL     1     -12.921  15.312  72.642  0.00  0.00    +0.168 C 
ENDROOT
BRANCH   2   3
ATOM      3  C   UNL     1     -12.417  15.283  74.054  0.00  0.00    +0.205 C 
ATOM      4  O   UNL     1     -12.528  16.497  74.713  0.00  0.00    -0.219 OA
ENDBRANCH   2   3
BRANCH   2   5
ATOM      5  C   UNL     1     -13.061  13.870  72.192  0.00  0.00    +0.205 C 
ATOM      6  O   UNL     1     -14.344  13.423  72.552  0.00  0.00    -0.219 OA
ENDBRANCH   2   5
BRANCH   2   7
ATOM      7  C   UNL     1     -12.002  16.012  71.682  0.00  0.00    +0.205 C 
ATOM      8  O   UNL     1     -12.453  16.007  70.377  0.00  0.00    -0.219 OA
ENDBRANCH   2   7
TORSDOF 3
ENDMDL
MODEL 2
REMARK VINA RESULT:      -4.1      0.123      2.947
REMARK  Name = 
REMARK  3 active torsions:
REMARK  status: ('A' for Active; 'I' for Inactive)
REMARK    1  A    between atoms: C_2  and  C_3
REMARK    2  A    between atoms: C_2  and  C_5
REMARK    3  A    between atoms: C_2  and  C_7
REMARK                            x       y       z     vdW  Elec       q    Type
REMARK                         _______ _______ _______ _____ _____    ______ ____
ROOT
ATOM      1  N   UNL     1     -14.220  15.949  72.589  0.00  0.00    -0.126 NA
ATOM      2  C   UNL     1     -12.931  15.293  72.570  0.00  0.00    +0.168 C 
ENDROOT
BRANCH   2   3
ATOM      3  C   UNL     1     -11.925  15.999  71.711  0.00  0.00    +0.205 C 
ATOM      4  O   UNL     1     -12.298  16.101  70.380  0.00  0.00    -0.219 OA
ENDBRANCH   2   3
BRANCH   2   5
ATOM      5  C   UNL     1     -12.383  15.294  73.984  0.00  0.00    +0.205 C 
ATOM      6  O   UNL     1     -12.593  16.571  74.532  0.00  0.00    -0.219 OA
ENDBRANCH   2   5
BRANCH   2   7
ATOM      7  C   UNL     1     -13.180  13.866  72.169  0.00  0.00    +0.205 C 
ATOM      8  O   UNL     1     -14.419  13.391  72.549  0.00  0.00    -0.219 OA
ENDBRANCH   2   7
TORSDOF 3
ENDMDL
MODEL 3
REMARK VINA RESULT:      -4.0      0.166      2.967
REMARK  Name = 
REMARK  3 active torsions:
REMARK  status: ('A' for Active; 'I' for Inactive)
REMARK    1  A    between atoms: C_2  and  C_3
REMARK    2  A    between atoms: C_2  and  C_5
REMARK    3  A    between atoms: C_2  and  C_7
REMARK                            x       y       z     vdW  Elec       q    Type
REMARK                         _______ _______ _______ _____ _____    ______ ____
ROOT
ATOM      1  N   UNL     1     -14.180  16.045  72.597  0.00  0.00    -0.126 NA
ATOM      2  C   UNL     1     -12.960  15.268  72.578  0.00  0.00    +0.168 C 
ENDROOT
BRANCH   2   3
ATOM      3  C   UNL     1     -13.141  13.904  71.983  0.00  0.00    +0.205 C 
ATOM      4  O   UNL     1     -14.125  13.149  72.601  0.00  0.00    -0.219 OA
ENDBRANCH   2   3
BRANCH   2   5
ATOM      5  C   UNL     1     -11.952  15.999  71.711  0.00  0.00    +0.205 C 
ATOM      6  O   UNL     1     -12.441  16.014  70.394  0.00  0.00    -0.219 OA
ENDBRANCH   2   5
BRANCH   2   7
ATOM      7  C   UNL     1     -12.438  15.253  73.987  0.00  0.00    +0.205 C 
ATOM      8  O   UNL     1     -12.574  16.461  74.642  0.00  0.00    -0.219 OA
ENDBRANCH   2   7
TORSDOF 3
ENDMDL
MODEL 4
REMARK VINA RESULT:      -3.8      6.989      8.061
REMARK  Name = 
REMARK  3 active torsions:
REMARK  status: ('A' for Active; 'I' for Inactive)
REMARK    1  A    between atoms: C_2  and  C_3
REMARK    2  A    between atoms: C_2  and  C_5
REMARK    3  A    between atoms: C_2  and  C_7
REMARK                            x       y       z     vdW  Elec       q    Type
REMARK                         _______ _______ _______ _____ _____    ______ ____
ROOT
ATOM      1  N   UNL     1     -12.611  14.621  64.010  0.00  0.00    -0.126 NA
ATOM      2  C   UNL     1     -11.583  14.483  65.018  0.00  0.00    +0.168 C 
ENDROOT
BRANCH   2   3
ATOM      3  C   UNL     1     -12.125  14.093  66.361  0.00  0.00    +0.205 C 
ATOM      4  O   UNL     1     -11.986  12.745  66.651  0.00  0.00    -0.219 OA
ENDBRANCH   2   3
BRANCH   2   5
ATOM      5  C   UNL     1     -10.644  13.375  64.582  0.00  0.00    +0.205 C 
ATOM      6  O   UNL     1     -11.221  12.724  63.478  0.00  0.00    -0.219 OA
ENDBRANCH   2   5
BRANCH   2   7
ATOM      7  C   UNL     1     -10.810  15.771  65.025  0.00  0.00    +0.205 C 
ATOM      8  O   UNL     1     -11.329  16.735  64.183  0.00  0.00    -0.219 OA
ENDBRANCH   2   7
TORSDOF 3
ENDMDL
MODEL 5
REMARK VINA RESULT:      -3.8      7.273      8.280
REMARK  Name = 
REMARK  3 active torsions:
REMARK  status: ('A' for Active; 'I' for Inactive)
REMARK    1  A    between atoms: C_2  and  C_3
REMARK    2  A    between atoms: C_2  and  C_5
REMARK    3  A    between atoms: C_2  and  C_7
REMARK                            x       y       z     vdW  Elec       q    Type
REMARK                         _______ _______ _______ _____ _____    ______ ____
ROOT
ATOM      1  N   UNL     1     -13.307  13.970  65.281  0.00  0.00    -0.126 NA
ATOM      2  C   UNL     1     -11.927  13.886  64.858  0.00  0.00    +0.168 C 
ENDROOT
BRANCH   2   3
ATOM      3  C   UNL     1     -11.275  15.229  64.709  0.00  0.00    +0.205 C 
ATOM      4  O   UNL     1     -11.986  16.111  63.911  0.00  0.00    -0.219 OA
ENDBRANCH   2   3
BRANCH   2   5
ATOM      5  C   UNL     1     -11.153  13.135  65.924  0.00  0.00    +0.205 C 
ATOM      6  O   UNL     1     -12.044  12.267  66.579  0.00  0.00    -0.219 OA
ENDBRANCH   2   5
BRANCH   2   7
ATOM      7  C   UNL     1     -11.911  13.060  63.603  0.00  0.00    +0.205 C 
ATOM      8  O   UNL     1     -13.010  12.235  63.466  0.00  0.00    -0.219 OA
ENDBRANCH   2   7
TORSDOF 3
ENDMDL
MODEL 6
REMARK VINA RESULT:      -3.8      1.473      2.572
REMARK  Name = 
REMARK  3 active torsions:
REMARK  status: ('A' for Active; 'I' for Inactive)
REMARK    1  A    between atoms: C_2  and  C_3
REMARK    2  A    between atoms: C_2  and  C_5
REMARK    3  A    between atoms: C_2  and  C_7
REMARK                            x       y       z     vdW  Elec       q    Type
REMARK                         _______ _______ _______ _____ _____    ______ ____
ROOT
ATOM      1  N   UNL     1     -13.527  13.469  72.718  0.00  0.00    -0.126 NA
ATOM      2  C   UNL     1     -13.043  14.833  72.705  0.00  0.00    +0.168 C 
ENDROOT
BRANCH   2   3
ATOM      3  C   UNL     1     -14.139  15.843  72.536  0.00  0.00    +0.205 C 
ATOM      4  O   UNL     1     -15.025  15.542  71.514  0.00  0.00    -0.219 OA
ENDBRANCH   2   3
BRANCH   2   5
ATOM      5  C   UNL     1     -12.388  15.111  74.045  0.00  0.00    +0.205 C 
ATOM      6  O   UNL     1     -12.720  16.422  74.428  0.00  0.00    -0.219 OA
ENDBRANCH   2   5
BRANCH   2   7
ATOM      7  C   UNL     1     -11.982  14.903  71.644  0.00  0.00    +0.205 C 
ATOM      8  O   UNL     1     -11.719  16.185  71.205  0.00  0.00    -0.219 OA
ENDBRANCH   2   7
TORSDOF 3
ENDMDL
MODEL 7
REMARK VINA RESULT:      -3.8      1.432      2.234
REMARK  Name = 
REMARK  3 active torsions:
REMARK  status: ('A' for Active; 'I' for Inactive)
REMARK    1  A    between atoms: C_2  and  C_3
REMARK    2  A    between atoms: C_2  and  C_5
REMARK    3  A    between atoms: C_2  and  C_7
REMARK                            x       y       z     vdW  Elec       q    Type
REMARK                         _______ _______ _______ _____ _____    ______ ____
ROOT
ATOM      1  N   UNL     1     -13.652  13.392  72.663  0.00  0.00    -0.126 NA
ATOM      2  C   UNL     1     -13.106  14.731  72.642  0.00  0.00    +0.168 C 
ENDROOT
BRANCH   2   3
ATOM      3  C   UNL     1     -12.423  15.108  73.923  0.00  0.00    +0.205 C 
ATOM      4  O   UNL     1     -12.762  16.368  74.389  0.00  0.00    -0.219 OA
ENDBRANCH   2   3
BRANCH   2   5
ATOM      5  C   UNL     1     -12.057  14.793  71.548  0.00  0.00    +0.205 C 
ATOM      6  O   UNL     1     -11.916  16.135  71.154  0.00  0.00    -0.219 OA
ENDBRANCH   2   5
BRANCH   2   7
ATOM      7  C   UNL     1     -14.231  15.650  72.260  0.00  0.00    +0.205 C 
ATOM      8  O   UNL     1     -15.189  15.054  71.464  0.00  0.00    -0.219 OA
ENDBRANCH   2   7
TORSDOF 3
ENDMDL
MODEL 8
REMARK VINA RESULT:      -3.8      1.468      2.757
REMARK  Name = 
REMARK  3 active torsions:
REMARK  status: ('A' for Active; 'I' for Inactive)
REMARK    1  A    between atoms: C_2  and  C_3
REMARK    2  A    between atoms: C_2  and  C_5
REMARK    3  A    between atoms: C_2  and  C_7
REMARK                            x       y       z     vdW  Elec       q    Type
REMARK                         _______ _______ _______ _____ _____    ______ ____
ROOT
ATOM      1  N   UNL     1     -13.628  13.503  72.695  0.00  0.00    -0.126 NA
ATOM      2  C   UNL     1     -13.049  14.827  72.623  0.00  0.00    +0.168 C 
ENDROOT
BRANCH   2   3
ATOM      3  C   UNL     1     -12.191  15.028  71.410  0.00  0.00    +0.205 C 
ATOM      4  O   UNL     1     -11.666  16.306  71.302  0.00  0.00    -0.219 OA
ENDBRANCH   2   3
BRANCH   2   5
ATOM      5  C   UNL     1     -14.183  15.831  72.535  0.00  0.00    +0.205 C 
ATOM      6  O   UNL     1     -14.984  15.488  71.433  0.00  0.00    -0.219 OA
ENDBRANCH   2   5
BRANCH   2   7
ATOM      7  C   UNL     1     -12.328  15.052  73.922  0.00  0.00    +0.205 C 
ATOM      8  O   UNL     1     -12.664  16.237  74.546  0.00  0.00    -0.219 OA
ENDBRANCH   2   7
TORSDOF 3
ENDMDL
MODEL 9
REMARK VINA RESULT:      -3.8      7.194      8.615
REMARK  Name = 
REMARK  3 active torsions:
REMARK  status: ('A' for Active; 'I' for Inactive)
REMARK    1  A    between atoms: C_2  and  C_3
REMARK    2  A    between atoms: C_2  and  C_5
REMARK    3  A    between atoms: C_2  and  C_7
REMARK                            x       y       z     vdW  Elec       q    Type
REMARK                         _______ _______ _______ _____ _____    ______ ____
ROOT
ATOM      1  N   UNL     1     -13.426  14.041  65.373  0.00  0.00    -0.126 NA
ATOM      2  C   UNL     1     -12.067  13.808  64.936  0.00  0.00    +0.168 C 
ENDROOT
BRANCH   2   3
ATOM      3  C   UNL     1     -11.988  13.053  63.642  0.00  0.00    +0.205 C 
ATOM      4  O   UNL     1     -13.029  12.160  63.450  0.00  0.00    -0.219 OA
ENDBRANCH   2   3
BRANCH   2   5
ATOM      5  C   UNL     1     -11.412  15.156  64.703  0.00  0.00    +0.205 C 
ATOM      6  O   UNL     1     -12.248  15.907  63.860  0.00  0.00    -0.219 OA
ENDBRANCH   2   5
BRANCH   2   7
ATOM      7  C   UNL     1     -11.357  13.136  66.077  0.00  0.00    +0.205 C 
ATOM      8  O   UNL     1     -12.044  12.061  66.604  0.00  0.00    -0.219 OA
ENDBRANCH   2   7
TORSDOF 3
ENDMDL
