MODEL 1
REMARK VINA RESULT:      -7.0      0.000      0.000
REMARK  Name = 
REMARK  23 active torsions:
REMARK  status: ('A' for Active; 'I' for Inactive)
REMARK    1  A    between atoms: C_2  and  C_4
REMARK    2  A    between atoms: C_4  and  N_5
REMARK    3  A    between atoms: N_5  and  C_6
REMARK    4  A    between atoms: N_5  and  C_48
REMARK    5  A    between atoms: C_6  and  C_7
REMARK    6  A    between atoms: C_7  and  N_8
REMARK    7  A    between atoms: N_8  and  C_9
REMARK    8  A    between atoms: N_8  and  C_13
REMARK    9  A    between atoms: C_9  and  C_10
REMARK   10  A    between atoms: C_13  and  C_14
REMARK   11  A    between atoms: C_14  and  C_15
REMARK   12  A    between atoms: C_14  and  N_39
REMARK   13  A    between atoms: C_15  and  O_16
REMARK   14  A    between atoms: O_16  and  P_17
REMARK   15  A    between atoms: P_17  and  O_20
REMARK   16  A    between atoms: O_20  and  C_21
REMARK   17  A    between atoms: C_24  and  C_25
REMARK   18  A    between atoms: C_24  and  C_31
REMARK   19  A    between atoms: N_39  and  C_40
REMARK   20  A    between atoms: N_39  and  C_44
REMARK   21  A    between atoms: C_40  and  C_41
REMARK   22  A    between atoms: C_44  and  C_45
REMARK   23  A    between atoms: C_48  and  C_49
REMARK                            x       y       z     vdW  Elec       q    Type
REMARK                         _______ _______ _______ _____ _____    ______ ____
ROOT
ATOM      1  C   UNL     1     -10.526  13.193  67.274  0.00  0.00    +0.105 C 
ENDROOT
BRANCH   1   2
ATOM      2  N   UNL     1     -10.997  13.501  65.812  0.00  0.00    -0.251 NA
BRANCH   2   3
ATOM      3  C   UNL     1     -11.701  14.722  65.803  0.00  0.00    +0.188 C 
BRANCH   3   4
ATOM      4  C   UNL     1     -10.951  15.743  65.048  0.00  0.00    +0.381 C 
ATOM      5  O   UNL     1     -11.670  16.393  64.038  0.00  0.00    -0.244 OA
ATOM      6  O   UNL     1      -9.737  15.462  64.811  0.00  0.00    -0.244 OA
ENDBRANCH   3   4
ENDBRANCH   2   3
BRANCH   2   7
ATOM      7  C   UNL     1     -11.634  12.351  65.294  0.00  0.00    +0.188 C 
BRANCH   7   8
ATOM      8  C   UNL     1     -11.525  12.385  63.806  0.00  0.00    +0.381 C 
ATOM      9  O   UNL     1     -12.700  12.508  63.095  0.00  0.00    -0.244 OA
ATOM     10  O   UNL     1     -10.492  12.074  63.179  0.00  0.00    -0.244 OA
ENDBRANCH   7   8
ENDBRANCH   2   7
ENDBRANCH   1   2
BRANCH   1  11
ATOM     11  C   UNL     1     -11.233  11.711  67.235  0.00  0.00    +0.091 C 
BRANCH  11  12
ATOM     12  N   UNL     1     -11.816  11.688  68.533  0.00  0.00    -0.261 NA
BRANCH  12  13
ATOM     13  C   UNL     1     -11.596  12.817  69.357  0.00  0.00    +0.090 C 
BRANCH  13  14
ATOM     14  C   UNL     1     -12.345  12.823  70.657  0.00  0.00    +0.091 C 
BRANCH  14  15
ATOM     15  N   UNL     1     -12.674  14.199  71.012  0.00  0.00    -0.252 NA
BRANCH  15  16
ATOM     16  C   UNL     1     -13.221  14.237  72.366  0.00  0.00    +0.188 C 
BRANCH  16  17
ATOM     17  C   UNL     1     -14.221  15.317  72.506  0.00  0.00    +0.381 C 
ATOM     18  O   UNL     1     -15.035  15.574  71.406  0.00  0.00    -0.244 OA
ATOM     19  O   UNL     1     -13.871  16.330  73.183  0.00  0.00    -0.244 OA
ENDBRANCH  16  17
ENDBRANCH  15  16
BRANCH  15  20
ATOM     20  C   UNL     1     -11.513  15.041  70.941  0.00  0.00    +0.188 C 
BRANCH  20  22
ATOM     21  O   UNL     1     -12.158  16.307  69.544  0.00  0.00    -0.244 OA
ATOM     22  C   UNL     1     -11.542  15.967  69.762  0.00  0.00    +0.381 C 
ATOM     23  O   UNL     1     -10.318  16.226  69.130  0.00  0.00    -0.244 OA
ENDBRANCH  20  22
ENDBRANCH  15  20
ENDBRANCH  14  15
ENDBRANCH  13  14
ENDBRANCH  12  13
BRANCH  12  24
ATOM     24  C   UNL     1     -11.993  10.439  69.161  0.00  0.00    +0.188 C 
BRANCH  24  25
ATOM     25  C   UNL     1     -10.689   9.702  69.174  0.00  0.00    +0.381 C 
ATOM     26  O   UNL     1     -10.427   8.684  68.251  0.00  0.00    -0.244 OA
ATOM     27  O   UNL     1      -9.801   9.993  70.012  0.00  0.00    -0.244 OA
ENDBRANCH  24  25
ENDBRANCH  12  24
ENDBRANCH  11  12
ENDBRANCH   1  11
BRANCH   1  28
ATOM     28  C   UNL     1      -9.065  12.613  66.805  0.00  0.00    +0.166 C 
BRANCH  28  29
ATOM     29  O   UNL     1      -8.452  12.145  67.943  0.00  0.00    -0.313 OA
BRANCH  29  30
ATOM     30  P   UNL     1      -7.044  12.917  68.382  0.00  0.00    +0.214 P 
ATOM     31  O   UNL     1      -6.160  12.103  69.557  0.00  0.00    -0.437 OA
ATOM     32  O   UNL     1      -6.162  12.999  67.145  0.00  0.00    -0.517 OA
BRANCH  30  33
ATOM     33  O   UNL     1      -7.429  14.435  68.982  0.00  0.00    -0.317 OA
BRANCH  33  34
ATOM     34  C   UNL     1      -6.852  15.486  68.347  0.00  0.00    +0.122 C 
ATOM     35  C   UNL     1      -6.072  16.444  69.140  0.00  0.00    +0.031 C 
ATOM     36  C   UNL     1      -6.304  17.891  68.868  0.00  0.00    +0.011 C 
ATOM     37  C   UNL     1      -6.654  18.226  67.455  0.00  0.00    +0.038 C 
ATOM     38  C   UNL     1      -6.610  17.056  66.515  0.00  0.00    +0.011 C 
ATOM     39  C   UNL     1      -7.513  15.986  67.120  0.00  0.00    +0.031 C 
BRANCH  37  40
ATOM     40  C   UNL     1      -5.738  19.278  66.912  0.00  0.00    -0.019 A 
ATOM     41  C   UNL     1      -5.347  19.184  65.592  0.00  0.00    -0.004 A 
ATOM     42  C   UNL     1      -4.518  20.156  65.094  0.00  0.00    -0.000 A 
ATOM     43  C   UNL     1      -4.218  21.253  65.871  0.00  0.00    -0.000 A 
ATOM     44  C   UNL     1      -5.066  21.539  66.927  0.00  0.00    -0.000 A 
ATOM     45  C   UNL     1      -5.864  20.543  67.436  0.00  0.00    -0.004 A 
ENDBRANCH  37  40
BRANCH  37  46
ATOM     46  C   UNL     1      -8.034  18.802  67.401  0.00  0.00    -0.019 A 
ATOM     47  C   UNL     1      -8.674  19.005  66.185  0.00  0.00    -0.004 A 
ATOM     48  C   UNL     1     -10.038  19.225  66.162  0.00  0.00    -0.000 A 
ATOM     49  C   UNL     1     -10.712  19.516  67.341  0.00  0.00    -0.000 A 
ATOM     50  C   UNL     1     -10.002  19.684  68.519  0.00  0.00    -0.000 A 
ATOM     51  C   UNL     1      -8.714  19.184  68.550  0.00  0.00    -0.004 A 
ENDBRANCH  37  46
ENDBRANCH  33  34
ENDBRANCH  30  33
ENDBRANCH  29  30
ENDBRANCH  28  29
ENDBRANCH   1  28
TORSDOF 23
ENDMDL
MODEL 2
REMARK VINA RESULT:      -7.0      3.249      9.030
REMARK  Name = 
REMARK  23 active torsions:
REMARK  status: ('A' for Active; 'I' for Inactive)
REMARK    1  A    between atoms: C_2  and  C_4
REMARK    2  A    between atoms: C_4  and  N_5
REMARK    3  A    between atoms: N_5  and  C_6
REMARK    4  A    between atoms: N_5  and  C_48
REMARK    5  A    between atoms: C_6  and  C_7
REMARK    6  A    between atoms: C_7  and  N_8
REMARK    7  A    between atoms: N_8  and  C_9
REMARK    8  A    between atoms: N_8  and  C_13
REMARK    9  A    between atoms: C_9  and  C_10
REMARK   10  A    between atoms: C_13  and  C_14
REMARK   11  A    between atoms: C_14  and  C_15
REMARK   12  A    between atoms: C_14  and  N_39
REMARK   13  A    between atoms: C_15  and  O_16
REMARK   14  A    between atoms: O_16  and  P_17
REMARK   15  A    between atoms: P_17  and  O_20
REMARK   16  A    between atoms: O_20  and  C_21
REMARK   17  A    between atoms: C_24  and  C_25
REMARK   18  A    between atoms: C_24  and  C_31
REMARK   19  A    between atoms: N_39  and  C_40
REMARK   20  A    between atoms: N_39  and  C_44
REMARK   21  A    between atoms: C_40  and  C_41
REMARK   22  A    between atoms: C_44  and  C_45
REMARK   23  A    between atoms: C_48  and  C_49
REMARK                            x       y       z     vdW  Elec       q    Type
REMARK                         _______ _______ _______ _____ _____    ______ ____
ROOT
ATOM      1  C   UNL     1     -10.592  13.761  67.043  0.00  0.00    +0.105 C 
ENDROOT
BRANCH   1   2
ATOM      2  N   UNL     1     -11.349  13.624  65.677  0.00  0.00    -0.251 NA
BRANCH   2   3
ATOM      3  C   UNL     1     -11.543  12.258  65.394  0.00  0.00    +0.188 C 
BRANCH   3   4
ATOM      4  C   UNL     1     -11.654  12.044  63.939  0.00  0.00    +0.381 C 
ATOM      5  O   UNL     1     -12.956  12.053  63.427  0.00  0.00    -0.244 OA
ATOM      6  O   UNL     1     -10.841  11.202  63.450  0.00  0.00    -0.244 OA
ENDBRANCH   3   4
ENDBRANCH   2   3
BRANCH   2   7
ATOM      7  C   UNL     1     -10.690  14.426  64.718  0.00  0.00    +0.188 C 
BRANCH   7   8
ATOM      8  C   UNL     1     -11.557  15.604  64.417  0.00  0.00    +0.381 C 
ATOM      9  O   UNL     1     -12.799  15.346  63.877  0.00  0.00    -0.244 OA
ATOM     10  O   UNL     1     -11.145  16.781  64.399  0.00  0.00    -0.244 OA
ENDBRANCH   7   8
ENDBRANCH   2   7
ENDBRANCH   1   2
BRANCH   1  11
ATOM     11  C   UNL     1     -11.982  14.157  67.822  0.00  0.00    +0.091 C 
BRANCH  11  12
ATOM     12  N   UNL     1     -11.502  15.213  68.648  0.00  0.00    -0.261 NA
BRANCH  12  13
ATOM     13  C   UNL     1     -10.855  16.292  68.002  0.00  0.00    +0.090 C 
BRANCH  13  14
ATOM     14  C   UNL     1     -10.201  17.290  68.911  0.00  0.00    +0.091 C 
BRANCH  14  15
ATOM     15  N   UNL     1      -8.943  17.726  68.315  0.00  0.00    -0.252 NA
BRANCH  15  16
ATOM     16  C   UNL     1      -8.809  17.149  66.980  0.00  0.00    +0.188 C 
BRANCH  16  17
ATOM     17  C   UNL     1      -7.423  17.273  66.482  0.00  0.00    +0.381 C 
ATOM     18  O   UNL     1      -7.227  18.040  65.337  0.00  0.00    -0.244 OA
ATOM     19  O   UNL     1      -6.686  16.248  66.592  0.00  0.00    -0.244 OA
ENDBRANCH  16  17
ENDBRANCH  15  16
BRANCH  15  20
ATOM     20  C   UNL     1      -8.883  19.157  68.226  0.00  0.00    +0.188 C 
BRANCH  20  22
ATOM     21  O   UNL     1     -10.666  20.013  67.986  0.00  0.00    -0.244 OA
ATOM     22  C   UNL     1     -10.106  19.748  67.589  0.00  0.00    +0.381 C 
ATOM     23  O   UNL     1     -10.105  19.852  66.191  0.00  0.00    -0.244 OA
ENDBRANCH  20  22
ENDBRANCH  15  20
ENDBRANCH  14  15
ENDBRANCH  13  14
ENDBRANCH  12  13
BRANCH  12  24
ATOM     24  C   UNL     1     -11.104  14.899  69.963  0.00  0.00    +0.188 C 
BRANCH  24  25
ATOM     25  C   UNL     1     -12.306  14.887  70.855  0.00  0.00    +0.381 C 
ATOM     26  O   UNL     1     -13.306  15.857  70.730  0.00  0.00    -0.244 OA
ATOM     27  O   UNL     1     -12.441  13.998  71.731  0.00  0.00    -0.244 OA
ENDBRANCH  24  25
ENDBRANCH  12  24
ENDBRANCH  11  12
ENDBRANCH   1  11
BRANCH   1  28
ATOM     28  C   UNL     1     -10.728  12.168  67.411  0.00  0.00    +0.166 C 
BRANCH  28  29
ATOM     29  O   UNL     1      -9.563  11.819  68.052  0.00  0.00    -0.313 OA
BRANCH  29  30
ATOM     30  P   UNL     1      -8.866  10.388  67.565  0.00  0.00    +0.214 P 
ATOM     31  O   UNL     1      -8.657  10.264  65.902  0.00  0.00    -0.437 OA
ATOM     32  O   UNL     1      -7.479  10.320  68.189  0.00  0.00    -0.517 OA
BRANCH  30  33
ATOM     33  O   UNL     1      -9.841   9.118  68.061  0.00  0.00    -0.317 OA
BRANCH  33  34
ATOM     34  C   UNL     1      -9.714   8.747  69.360  0.00  0.00    +0.122 C 
ATOM     35  C   UNL     1      -9.446   7.335  69.665  0.00  0.00    +0.031 C 
ATOM     36  C   UNL     1     -10.239   6.722  70.768  0.00  0.00    +0.011 C 
ATOM     37  C   UNL     1     -10.613   7.650  71.876  0.00  0.00    +0.038 C 
ATOM     38  C   UNL     1     -10.036   9.030  71.747  0.00  0.00    +0.011 C 
ATOM     39  C   UNL     1     -10.450   9.540  70.370  0.00  0.00    +0.031 C 
BRANCH  37  40
ATOM     40  C   UNL     1     -10.184   7.102  73.201  0.00  0.00    -0.019 A 
ATOM     41  C   UNL     1     -10.565   5.817  73.531  0.00  0.00    -0.004 A 
ATOM     42  C   UNL     1     -10.159   5.315  74.740  0.00  0.00    -0.000 A 
ATOM     43  C   UNL     1      -9.282   6.040  75.516  0.00  0.00    -0.000 A 
ATOM     44  C   UNL     1      -8.536   7.022  74.887  0.00  0.00    -0.000 A 
ATOM     45  C   UNL     1      -8.977   7.539  73.693  0.00  0.00    -0.004 A 
ENDBRANCH  37  40
BRANCH  37  46
ATOM     46  C   UNL     1     -12.102   7.783  71.940  0.00  0.00    -0.019 A 
ATOM     47  C   UNL     1     -12.694   8.841  72.618  0.00  0.00    -0.004 A 
ATOM     48  C   UNL     1     -14.028   9.128  72.399  0.00  0.00    -0.000 A 
ATOM     49  C   UNL     1     -14.833   8.215  71.732  0.00  0.00    -0.000 A 
ATOM     50  C   UNL     1     -14.323   6.976  71.377  0.00  0.00    -0.000 A 
ATOM     51  C   UNL     1     -12.948   6.847  71.357  0.00  0.00    -0.004 A 
ENDBRANCH  37  46
ENDBRANCH  33  34
ENDBRANCH  30  33
ENDBRANCH  29  30
ENDBRANCH  28  29
ENDBRANCH   1  28
TORSDOF 23
ENDMDL
MODEL 3
REMARK VINA RESULT:      -6.9      0.905      1.971
REMARK  Name = 
REMARK  23 active torsions:
REMARK  status: ('A' for Active; 'I' for Inactive)
REMARK    1  A    between atoms: C_2  and  C_4
REMARK    2  A    between atoms: C_4  and  N_5
REMARK    3  A    between atoms: N_5  and  C_6
REMARK    4  A    between atoms: N_5  and  C_48
REMARK    5  A    between atoms: C_6  and  C_7
REMARK    6  A    between atoms: C_7  and  N_8
REMARK    7  A    between atoms: N_8  and  C_9
REMARK    8  A    between atoms: N_8  and  C_13
REMARK    9  A    between atoms: C_9  and  C_10
REMARK   10  A    between atoms: C_13  and  C_14
REMARK   11  A    between atoms: C_14  and  C_15
REMARK   12  A    between atoms: C_14  and  N_39
REMARK   13  A    between atoms: C_15  and  O_16
REMARK   14  A    between atoms: O_16  and  P_17
REMARK   15  A    between atoms: P_17  and  O_20
REMARK   16  A    between atoms: O_20  and  C_21
REMARK   17  A    between atoms: C_24  and  C_25
REMARK   18  A    between atoms: C_24  and  C_31
REMARK   19  A    between atoms: N_39  and  C_40
REMARK   20  A    between atoms: N_39  and  C_44
REMARK   21  A    between atoms: C_40  and  C_41
REMARK   22  A    between atoms: C_44  and  C_45
REMARK   23  A    between atoms: C_48  and  C_49
REMARK                            x       y       z     vdW  Elec       q    Type
REMARK                         _______ _______ _______ _____ _____    ______ ____
ROOT
ATOM      1  C   UNL     1     -10.397  13.358  67.037  0.00  0.00    +0.105 C 
ENDROOT
BRANCH   1   2
ATOM      2  N   UNL     1     -10.658  13.331  65.492  0.00  0.00    -0.251 NA
BRANCH   2   3
ATOM      3  C   UNL     1     -10.089  12.162  64.950  0.00  0.00    +0.188 C 
BRANCH   3   4
ATOM      4  C   UNL     1     -10.510  11.987  63.547  0.00  0.00    +0.381 C 
ATOM      5  O   UNL     1     -11.845  11.609  63.361  0.00  0.00    -0.244 OA
ATOM      6  O   UNL     1      -9.645  11.464  62.781  0.00  0.00    -0.244 OA
ENDBRANCH   3   4
ENDBRANCH   2   3
BRANCH   2   7
ATOM      7  C   UNL     1     -10.279  14.580  64.951  0.00  0.00    +0.188 C 
BRANCH   7   8
ATOM      8  C   UNL     1     -11.508  15.270  64.458  0.00  0.00    +0.381 C 
ATOM      9  O   UNL     1     -11.412  16.623  64.216  0.00  0.00    -0.244 OA
ATOM     10  O   UNL     1     -12.646  14.759  64.482  0.00  0.00    -0.244 OA
ENDBRANCH   7   8
ENDBRANCH   2   7
ENDBRANCH   1   2
BRANCH   1  11
ATOM     11  C   UNL     1     -10.929  11.813  67.197  0.00  0.00    +0.091 C 
BRANCH  11  12
ATOM     12  N   UNL     1     -11.884  11.994  68.237  0.00  0.00    -0.261 NA
BRANCH  12  13
ATOM     13  C   UNL     1     -12.186  13.326  68.608  0.00  0.00    +0.090 C 
BRANCH  13  14
ATOM     14  C   UNL     1     -12.248  13.586  70.084  0.00  0.00    +0.091 C 
BRANCH  14  15
ATOM     15  N   UNL     1     -12.524  15.001  70.307  0.00  0.00    -0.252 NA
BRANCH  15  16
ATOM     16  C   UNL     1     -13.544  15.142  71.344  0.00  0.00    +0.188 C 
BRANCH  16  17
ATOM     17  C   UNL     1     -13.308  14.195  72.455  0.00  0.00    +0.381 C 
ATOM     18  O   UNL     1     -14.247  13.183  72.635  0.00  0.00    -0.244 OA
ATOM     19  O   UNL     1     -12.805  14.675  73.514  0.00  0.00    -0.244 OA
ENDBRANCH  16  17
ENDBRANCH  15  16
BRANCH  15  20
ATOM     20  C   UNL     1     -11.337  15.702  70.705  0.00  0.00    +0.188 C 
BRANCH  20  22
ATOM     21  O   UNL     1      -9.849  16.180  69.469  0.00  0.00    -0.244 OA
ATOM     22  C   UNL     1     -10.577  16.260  69.539  0.00  0.00    +0.381 C 
ATOM     23  O   UNL     1     -11.329  16.880  68.530  0.00  0.00    -0.244 OA
ENDBRANCH  20  22
ENDBRANCH  15  20
ENDBRANCH  14  15
ENDBRANCH  13  14
ENDBRANCH  12  13
BRANCH  12  24
ATOM     24  C   UNL     1     -11.985  10.996  69.227  0.00  0.00    +0.188 C 
BRANCH  24  25
ATOM     25  C   UNL     1     -10.807  10.077  69.127  0.00  0.00    +0.381 C 
ATOM     26  O   UNL     1     -10.817   8.985  68.254  0.00  0.00    -0.244 OA
ATOM     27  O   UNL     1      -9.782  10.277  69.824  0.00  0.00    -0.244 OA
ENDBRANCH  24  25
ENDBRANCH  12  24
ENDBRANCH  11  12
ENDBRANCH   1  11
BRANCH   1  28
ATOM     28  C   UNL     1      -8.827  12.903  66.897  0.00  0.00    +0.166 C 
BRANCH  28  29
ATOM     29  O   UNL     1      -8.374  12.676  68.174  0.00  0.00    -0.313 OA
BRANCH  29  30
ATOM     30  P   UNL     1      -6.813  13.160  68.491  0.00  0.00    +0.214 P 
ATOM     31  O   UNL     1      -5.989  12.147  69.549  0.00  0.00    -0.437 OA
ATOM     32  O   UNL     1      -6.051  13.135  67.173  0.00  0.00    -0.517 OA
BRANCH  30  33
ATOM     33  O   UNL     1      -6.852  14.695  69.166  0.00  0.00    -0.317 OA
BRANCH  33  34
ATOM     34  C   UNL     1      -6.435  15.705  68.363  0.00  0.00    +0.122 C 
ATOM     35  C   UNL     1      -5.609  16.770  68.945  0.00  0.00    +0.031 C 
ATOM     36  C   UNL     1      -5.964  18.172  68.583  0.00  0.00    +0.011 C 
ATOM     37  C   UNL     1      -6.530  18.353  67.213  0.00  0.00    +0.038 C 
ATOM     38  C   UNL     1      -6.550  17.102  66.383  0.00  0.00    +0.011 C 
ATOM     39  C   UNL     1      -7.292  16.054  67.207  0.00  0.00    +0.031 C 
BRANCH  37  40
ATOM     40  C   UNL     1      -5.765  19.389  66.450  0.00  0.00    -0.019 A 
ATOM     41  C   UNL     1      -5.270  20.477  67.142  0.00  0.00    -0.004 A 
ATOM     42  C   UNL     1      -4.559  21.417  66.442  0.00  0.00    -0.000 A 
ATOM     43  C   UNL     1      -4.245  21.184  65.122  0.00  0.00    -0.000 A 
ATOM     44  C   UNL     1      -4.289  19.875  64.676  0.00  0.00    -0.000 A 
ATOM     45  C   UNL     1      -5.035  18.954  65.370  0.00  0.00    -0.004 A 
ENDBRANCH  37  40
BRANCH  37  46
ATOM     46  C   UNL     1      -7.935  18.857  67.311  0.00  0.00    -0.019 A 
ATOM     47  C   UNL     1      -8.507  19.137  68.545  0.00  0.00    -0.004 A 
ATOM     48  C   UNL     1      -9.662  19.893  68.604  0.00  0.00    -0.000 A 
ATOM     49  C   UNL     1     -10.393  20.133  67.448  0.00  0.00    -0.000 A 
ATOM     50  C   UNL     1     -10.017  19.532  66.257  0.00  0.00    -0.000 A 
ATOM     51  C   UNL     1      -8.730  19.034  66.186  0.00  0.00    -0.004 A 
ENDBRANCH  37  46
ENDBRANCH  33  34
ENDBRANCH  30  33
ENDBRANCH  29  30
ENDBRANCH  28  29
ENDBRANCH   1  28
TORSDOF 23
ENDMDL
MODEL 4
REMARK VINA RESULT:      -6.8      3.619      9.534
REMARK  Name = 
REMARK  23 active torsions:
REMARK  status: ('A' for Active; 'I' for Inactive)
REMARK    1  A    between atoms: C_2  and  C_4
REMARK    2  A    between atoms: C_4  and  N_5
REMARK    3  A    between atoms: N_5  and  C_6
REMARK    4  A    between atoms: N_5  and  C_48
REMARK    5  A    between atoms: C_6  and  C_7
REMARK    6  A    between atoms: C_7  and  N_8
REMARK    7  A    between atoms: N_8  and  C_9
REMARK    8  A    between atoms: N_8  and  C_13
REMARK    9  A    between atoms: C_9  and  C_10
REMARK   10  A    between atoms: C_13  and  C_14
REMARK   11  A    between atoms: C_14  and  C_15
REMARK   12  A    between atoms: C_14  and  N_39
REMARK   13  A    between atoms: C_15  and  O_16
REMARK   14  A    between atoms: O_16  and  P_17
REMARK   15  A    between atoms: P_17  and  O_20
REMARK   16  A    between atoms: O_20  and  C_21
REMARK   17  A    between atoms: C_24  and  C_25
REMARK   18  A    between atoms: C_24  and  C_31
REMARK   19  A    between atoms: N_39  and  C_40
REMARK   20  A    between atoms: N_39  and  C_44
REMARK   21  A    between atoms: C_40  and  C_41
REMARK   22  A    between atoms: C_44  and  C_45
REMARK   23  A    between atoms: C_48  and  C_49
REMARK                            x       y       z     vdW  Elec       q    Type
REMARK                         _______ _______ _______ _____ _____    ______ ____
ROOT
ATOM      1  C   UNL     1     -10.650  14.032  67.387  0.00  0.00    +0.105 C 
ENDROOT
BRANCH   1   2
ATOM      2  N   UNL     1     -11.361  13.862  66.001  0.00  0.00    -0.251 NA
BRANCH   2   3
ATOM      3  C   UNL     1     -11.611  12.493  65.778  0.00  0.00    +0.188 C 
BRANCH   3   4
ATOM      4  C   UNL     1     -10.600  11.927  64.866  0.00  0.00    +0.381 C 
ATOM      5  O   UNL     1     -11.081  11.506  63.621  0.00  0.00    -0.244 OA
ATOM      6  O   UNL     1      -9.708  11.213  65.418  0.00  0.00    -0.244 OA
ENDBRANCH   3   4
ENDBRANCH   2   3
BRANCH   2   7
ATOM      7  C   UNL     1     -10.629  14.582  65.031  0.00  0.00    +0.188 C 
BRANCH   7   8
ATOM      8  C   UNL     1     -11.590  15.391  64.224  0.00  0.00    +0.381 C 
ATOM      9  O   UNL     1     -11.356  16.747  64.147  0.00  0.00    -0.244 OA
ATOM     10  O   UNL     1     -12.693  14.965  63.828  0.00  0.00    -0.244 OA
ENDBRANCH   7   8
ENDBRANCH   2   7
ENDBRANCH   1   2
BRANCH   1  11
ATOM     11  C   UNL     1     -11.402  15.470  67.644  0.00  0.00    +0.091 C 
BRANCH  11  12
ATOM     12  N   UNL     1     -10.583  15.986  68.688  0.00  0.00    -0.261 NA
BRANCH  12  13
ATOM     13  C   UNL     1     -11.223  16.311  69.907  0.00  0.00    +0.090 C 
BRANCH  13  14
ATOM     14  C   UNL     1     -10.984  15.352  71.036  0.00  0.00    +0.091 C 
BRANCH  14  15
ATOM     15  N   UNL     1     -12.173  15.302  71.879  0.00  0.00    -0.252 NA
BRANCH  15  16
ATOM     16  C   UNL     1     -12.142  16.408  72.834  0.00  0.00    +0.188 C 
BRANCH  16  17
ATOM     17  C   UNL     1     -12.494  15.947  74.194  0.00  0.00    +0.381 C 
ATOM     18  O   UNL     1     -12.318  16.854  75.236  0.00  0.00    -0.244 OA
ATOM     19  O   UNL     1     -12.239  14.736  74.468  0.00  0.00    -0.244 OA
ENDBRANCH  16  17
ENDBRANCH  15  16
BRANCH  15  20
ATOM     20  C   UNL     1     -13.368  15.385  71.090  0.00  0.00    +0.188 C 
BRANCH  20  22
ATOM     21  O   UNL     1     -14.317  13.891  72.005  0.00  0.00    -0.244 OA
ATOM     22  C   UNL     1     -14.458  14.486  71.595  0.00  0.00    +0.381 C 
ATOM     23  O   UNL     1     -15.777  14.873  71.320  0.00  0.00    -0.244 OA
ENDBRANCH  20  22
ENDBRANCH  15  20
ENDBRANCH  14  15
ENDBRANCH  13  14
ENDBRANCH  12  13
BRANCH  12  24
ATOM     24  C   UNL     1      -9.436  16.723  68.329  0.00  0.00    +0.188 C 
BRANCH  24  25
ATOM     25  C   UNL     1      -9.833  17.848  67.424  0.00  0.00    +0.381 C 
ATOM     26  O   UNL     1      -9.297  17.961  66.137  0.00  0.00    -0.244 OA
ATOM     27  O   UNL     1     -10.664  18.709  67.804  0.00  0.00    -0.244 OA
ENDBRANCH  24  25
ENDBRANCH  12  24
ENDBRANCH  11  12
ENDBRANCH   1  11
BRANCH   1  28
ATOM     28  C   UNL     1     -11.788  13.182  68.208  0.00  0.00    +0.166 C 
BRANCH  28  29
ATOM     29  O   UNL     1     -11.152  12.634  69.296  0.00  0.00    -0.313 OA
BRANCH  29  30
ATOM     30  P   UNL     1     -11.534  11.051  69.641  0.00  0.00    +0.214 P 
ATOM     31  O   UNL     1     -12.459  10.863  71.032  0.00  0.00    -0.437 OA
ATOM     32  O   UNL     1     -12.367  10.518  68.484  0.00  0.00    -0.517 OA
BRANCH  30  33
ATOM     33  O   UNL     1     -10.112  10.187  69.843  0.00  0.00    -0.317 OA
BRANCH  33  34
ATOM     34  C   UNL     1     -10.218   9.029  70.542  0.00  0.00    +0.122 C 
ATOM     35  C   UNL     1      -9.196   8.720  71.550  0.00  0.00    +0.031 C 
ATOM     36  C   UNL     1      -8.657   7.330  71.560  0.00  0.00    +0.011 C 
ATOM     37  C   UNL     1      -9.624   6.268  71.151  0.00  0.00    +0.038 C 
ATOM     38  C   UNL     1     -11.018   6.767  70.898  0.00  0.00    +0.011 C 
ATOM     39  C   UNL     1     -10.891   7.890  69.874  0.00  0.00    +0.031 C 
BRANCH  37  40
ATOM     40  C   UNL     1      -9.709   5.193  72.189  0.00  0.00    -0.019 A 
ATOM     41  C   UNL     1      -8.598   4.952  72.972  0.00  0.00    -0.004 A 
ATOM     42  C   UNL     1      -8.685   3.975  73.930  0.00  0.00    -0.000 A 
ATOM     43  C   UNL     1      -9.898   3.371  74.174  0.00  0.00    -0.000 A 
ATOM     44  C   UNL     1     -11.038   4.036  73.757  0.00  0.00    -0.000 A 
ATOM     45  C   UNL     1     -10.938   4.987  72.771  0.00  0.00    -0.004 A 
ENDBRANCH  37  40
BRANCH  37  46
ATOM     46  C   UNL     1      -9.143   5.604  69.899  0.00  0.00    -0.019 A 
ATOM     47  C   UNL     1      -7.963   6.006  69.288  0.00  0.00    -0.004 A 
ATOM     48  C   UNL     1      -7.375   5.190  68.340  0.00  0.00    -0.000 A 
ATOM     49  C   UNL     1      -8.088   4.125  67.805  0.00  0.00    -0.000 A 
ATOM     50  C   UNL     1      -9.418   3.943  68.148  0.00  0.00    -0.000 A 
ATOM     51  C   UNL     1      -9.866   4.590  69.284  0.00  0.00    -0.004 A 
ENDBRANCH  37  46
ENDBRANCH  33  34
ENDBRANCH  30  33
ENDBRANCH  29  30
ENDBRANCH  28  29
ENDBRANCH   1  28
TORSDOF 23
ENDMDL
MODEL 5
REMARK VINA RESULT:      -6.8      3.159      8.714
REMARK  Name = 
REMARK  23 active torsions:
REMARK  status: ('A' for Active; 'I' for Inactive)
REMARK    1  A    between atoms: C_2  and  C_4
REMARK    2  A    between atoms: C_4  and  N_5
REMARK    3  A    between atoms: N_5  and  C_6
REMARK    4  A    between atoms: N_5  and  C_48
REMARK    5  A    between atoms: C_6  and  C_7
REMARK    6  A    between atoms: C_7  and  N_8
REMARK    7  A    between atoms: N_8  and  C_9
REMARK    8  A    between atoms: N_8  and  C_13
REMARK    9  A    between atoms: C_9  and  C_10
REMARK   10  A    between atoms: C_13  and  C_14
REMARK   11  A    between atoms: C_14  and  C_15
REMARK   12  A    between atoms: C_14  and  N_39
REMARK   13  A    between atoms: C_15  and  O_16
REMARK   14  A    between atoms: O_16  and  P_17
REMARK   15  A    between atoms: P_17  and  O_20
REMARK   16  A    between atoms: O_20  and  C_21
REMARK   17  A    between atoms: C_24  and  C_25
REMARK   18  A    between atoms: C_24  and  C_31
REMARK   19  A    between atoms: N_39  and  C_40
REMARK   20  A    between atoms: N_39  and  C_44
REMARK   21  A    between atoms: C_40  and  C_41
REMARK   22  A    between atoms: C_44  and  C_45
REMARK   23  A    between atoms: C_48  and  C_49
REMARK                            x       y       z     vdW  Elec       q    Type
REMARK                         _______ _______ _______ _____ _____    ______ ____
ROOT
ATOM      1  C   UNL     1      -9.891  13.825  67.049  0.00  0.00    +0.105 C 
ENDROOT
BRANCH   1   2
ATOM      2  N   UNL     1     -10.228  15.139  66.263  0.00  0.00    -0.251 NA
BRANCH   2   3
ATOM      3  C   UNL     1     -10.509  14.813  64.922  0.00  0.00    +0.188 C 
BRANCH   3   4
ATOM      4  C   UNL     1     -11.721  15.518  64.464  0.00  0.00    +0.381 C 
ATOM      5  O   UNL     1     -12.715  14.708  63.904  0.00  0.00    -0.244 OA
ATOM      6  O   UNL     1     -11.520  16.649  63.925  0.00  0.00    -0.244 OA
ENDBRANCH   3   4
ENDBRANCH   2   3
BRANCH   2   7
ATOM      7  C   UNL     1      -9.218  16.091  66.529  0.00  0.00    +0.188 C 
BRANCH   7   8
ATOM      8  C   UNL     1      -9.798  17.157  67.400  0.00  0.00    +0.381 C 
ATOM      9  O   UNL     1      -9.636  17.010  68.761  0.00  0.00    -0.244 OA
ATOM     10  O   UNL     1     -10.604  18.019  66.996  0.00  0.00    -0.244 OA
ENDBRANCH   7   8
ENDBRANCH   2   7
ENDBRANCH   1   2
BRANCH   1  11
ATOM     11  C   UNL     1     -11.474  13.391  67.087  0.00  0.00    +0.091 C 
BRANCH  11  12
ATOM     12  N   UNL     1     -11.641  13.219  68.491  0.00  0.00    -0.261 NA
BRANCH  12  13
ATOM     13  C   UNL     1     -12.110  14.334  69.225  0.00  0.00    +0.090 C 
BRANCH  13  14
ATOM     14  C   UNL     1     -11.418  14.583  70.532  0.00  0.00    +0.091 C 
BRANCH  14  15
ATOM     15  N   UNL     1     -12.408  14.968  71.531  0.00  0.00    -0.252 NA
BRANCH  15  16
ATOM     16  C   UNL     1     -11.911  16.110  72.296  0.00  0.00    +0.188 C 
BRANCH  16  17
ATOM     17  C   UNL     1     -12.139  15.920  73.744  0.00  0.00    +0.381 C 
ATOM     18  O   UNL     1     -12.161  14.610  74.216  0.00  0.00    -0.244 OA
ATOM     19  O   UNL     1     -12.946  16.722  74.302  0.00  0.00    -0.244 OA
ENDBRANCH  16  17
ENDBRANCH  15  16
BRANCH  15  20
ATOM     20  C   UNL     1     -13.657  15.312  70.914  0.00  0.00    +0.188 C 
BRANCH  20  22
ATOM     21  O   UNL     1     -15.522  14.924  71.496  0.00  0.00    -0.244 OA
ATOM     22  C   UNL     1     -14.834  14.687  71.603  0.00  0.00    +0.381 C 
ATOM     23  O   UNL     1     -14.577  13.566  72.405  0.00  0.00    -0.244 OA
ENDBRANCH  20  22
ENDBRANCH  15  20
ENDBRANCH  14  15
ENDBRANCH  13  14
ENDBRANCH  12  13
BRANCH  12  24
ATOM     24  C   UNL     1     -10.800  12.302  69.152  0.00  0.00    +0.188 C 
BRANCH  24  25
ATOM     25  C   UNL     1     -11.611  11.131  69.615  0.00  0.00    +0.381 C 
ATOM     26  O   UNL     1     -11.329  10.494  70.828  0.00  0.00    -0.244 OA
ATOM     27  O   UNL     1     -12.567  10.704  68.922  0.00  0.00    -0.244 OA
ENDBRANCH  24  25
ENDBRANCH  12  24
ENDBRANCH  11  12
ENDBRANCH   1  11
BRANCH   1  28
ATOM     28  C   UNL     1      -9.587  12.953  65.692  0.00  0.00    +0.166 C 
BRANCH  28  29
ATOM     29  O   UNL     1      -9.066  11.753  66.113  0.00  0.00    -0.313 OA
BRANCH  29  30
ATOM     30  P   UNL     1      -9.704  10.392  65.398  0.00  0.00    +0.214 P 
ATOM     31  O   UNL     1     -10.695  10.717  64.080  0.00  0.00    -0.437 OA
ATOM     32  O   UNL     1      -8.539   9.560  64.879  0.00  0.00    -0.517 OA
BRANCH  30  33
ATOM     33  O   UNL     1     -10.612   9.562  66.538  0.00  0.00    -0.317 OA
BRANCH  33  34
ATOM     34  C   UNL     1     -10.013   8.481  67.098  0.00  0.00    +0.122 C 
ATOM     35  C   UNL     1     -10.636   7.163  66.924  0.00  0.00    +0.031 C 
ATOM     36  C   UNL     1     -10.727   6.297  68.134  0.00  0.00    +0.011 C 
ATOM     37  C   UNL     1      -9.615   6.454  69.117  0.00  0.00    +0.038 C 
ATOM     38  C   UNL     1      -8.527   7.388  68.673  0.00  0.00    +0.011 C 
ATOM     39  C   UNL     1      -9.210   8.706  68.322  0.00  0.00    +0.031 C 
BRANCH  37  40
ATOM     40  C   UNL     1      -8.981   5.133  69.424  0.00  0.00    -0.019 A 
ATOM     41  C   UNL     1      -9.798   4.026  69.535  0.00  0.00    -0.004 A 
ATOM     42  C   UNL     1      -9.211   2.817  69.803  0.00  0.00    -0.000 A 
ATOM     43  C   UNL     1      -7.838   2.718  69.816  0.00  0.00    -0.000 A 
ATOM     44  C   UNL     1      -7.120   3.707  69.166  0.00  0.00    -0.000 A 
ATOM     45  C   UNL     1      -7.712   4.925  68.937  0.00  0.00    -0.004 A 
ENDBRANCH  37  40
BRANCH  37  46
ATOM     46  C   UNL     1     -10.157   6.970  70.413  0.00  0.00    -0.019 A 
ATOM     47  C   UNL     1     -11.526   7.063  70.625  0.00  0.00    -0.004 A 
ATOM     48  C   UNL     1     -12.006   7.228  71.911  0.00  0.00    -0.000 A 
ATOM     49  C   UNL     1     -11.135   7.572  72.936  0.00  0.00    -0.000 A 
ATOM     50  C   UNL     1      -9.807   7.848  72.650  0.00  0.00    -0.000 A 
ATOM     51  C   UNL     1      -9.323   7.403  71.436  0.00  0.00    -0.004 A 
ENDBRANCH  37  46
ENDBRANCH  33  34
ENDBRANCH  30  33
ENDBRANCH  29  30
ENDBRANCH  28  29
ENDBRANCH   1  28
TORSDOF 23
ENDMDL
MODEL 6
REMARK VINA RESULT:      -6.8      3.882      9.463
REMARK  Name = 
REMARK  23 active torsions:
REMARK  status: ('A' for Active; 'I' for Inactive)
REMARK    1  A    between atoms: C_2  and  C_4
REMARK    2  A    between atoms: C_4  and  N_5
REMARK    3  A    between atoms: N_5  and  C_6
REMARK    4  A    between atoms: N_5  and  C_48
REMARK    5  A    between atoms: C_6  and  C_7
REMARK    6  A    between atoms: C_7  and  N_8
REMARK    7  A    between atoms: N_8  and  C_9
REMARK    8  A    between atoms: N_8  and  C_13
REMARK    9  A    between atoms: C_9  and  C_10
REMARK   10  A    between atoms: C_13  and  C_14
REMARK   11  A    between atoms: C_14  and  C_15
REMARK   12  A    between atoms: C_14  and  N_39
REMARK   13  A    between atoms: C_15  and  O_16
REMARK   14  A    between atoms: O_16  and  P_17
REMARK   15  A    between atoms: P_17  and  O_20
REMARK   16  A    between atoms: O_20  and  C_21
REMARK   17  A    between atoms: C_24  and  C_25
REMARK   18  A    between atoms: C_24  and  C_31
REMARK   19  A    between atoms: N_39  and  C_40
REMARK   20  A    between atoms: N_39  and  C_44
REMARK   21  A    between atoms: C_40  and  C_41
REMARK   22  A    between atoms: C_44  and  C_45
REMARK   23  A    between atoms: C_48  and  C_49
REMARK                            x       y       z     vdW  Elec       q    Type
REMARK                         _______ _______ _______ _____ _____    ______ ____
ROOT
ATOM      1  C   UNL     1     -10.710  13.949  67.149  0.00  0.00    +0.105 C 
ENDROOT
BRANCH   1   2
ATOM      2  N   UNL     1     -11.570  13.889  65.840  0.00  0.00    -0.251 NA
BRANCH   2   3
ATOM      3  C   UNL     1     -11.994  12.562  65.628  0.00  0.00    +0.188 C 
BRANCH   3   4
ATOM      4  C   UNL     1     -11.905  12.215  64.198  0.00  0.00    +0.381 C 
ATOM      5  O   UNL     1     -13.125  12.158  63.515  0.00  0.00    -0.244 OA
ATOM      6  O   UNL     1     -11.031  11.345  63.903  0.00  0.00    -0.244 OA
ENDBRANCH   3   4
ENDBRANCH   2   3
BRANCH   2   7
ATOM      7  C   UNL     1     -10.862  14.545  64.809  0.00  0.00    +0.188 C 
BRANCH   7   8
ATOM      8  C   UNL     1     -11.617  15.776  64.430  0.00  0.00    +0.381 C 
ATOM      9  O   UNL     1     -12.836  15.597  63.811  0.00  0.00    -0.244 OA
ATOM     10  O   UNL     1     -11.119  16.920  64.422  0.00  0.00    -0.244 OA
ENDBRANCH   7   8
ENDBRANCH   2   7
ENDBRANCH   1   2
BRANCH   1  11
ATOM     11  C   UNL     1     -11.739  15.034  67.827  0.00  0.00    +0.091 C 
BRANCH  11  12
ATOM     12  N   UNL     1     -10.807  15.827  68.554  0.00  0.00    -0.261 NA
BRANCH  12  13
ATOM     13  C   UNL     1     -11.139  16.147  69.891  0.00  0.00    +0.090 C 
BRANCH  13  14
ATOM     14  C   UNL     1     -11.180  14.986  70.840  0.00  0.00    +0.091 C 
BRANCH  14  15
ATOM     15  N   UNL     1     -12.302  15.158  71.757  0.00  0.00    -0.252 NA
BRANCH  15  16
ATOM     16  C   UNL     1     -12.038  16.288  72.645  0.00  0.00    +0.188 C 
BRANCH  16  17
ATOM     17  C   UNL     1     -12.483  15.996  74.024  0.00  0.00    +0.381 C 
ATOM     18  O   UNL     1     -12.358  17.020  74.960  0.00  0.00    -0.244 OA
ATOM     19  O   UNL     1     -12.265  14.825  74.456  0.00  0.00    -0.244 OA
ENDBRANCH  16  17
ENDBRANCH  15  16
BRANCH  15  20
ATOM     20  C   UNL     1     -13.523  15.389  71.039  0.00  0.00    +0.188 C 
BRANCH  20  22
ATOM     21  O   UNL     1     -15.387  14.855  71.499  0.00  0.00    -0.244 OA
ATOM     22  C   UNL     1     -14.690  14.659  71.635  0.00  0.00    +0.381 C 
ATOM     23  O   UNL     1     -14.402  13.523  72.404  0.00  0.00    -0.244 OA
ENDBRANCH  20  22
ENDBRANCH  15  20
ENDBRANCH  14  15
ENDBRANCH  13  14
ENDBRANCH  12  13
BRANCH  12  24
ATOM     24  C   UNL     1     -10.012  16.744  67.836  0.00  0.00    +0.188 C 
BRANCH  24  25
ATOM     25  C   UNL     1      -8.633  16.767  68.419  0.00  0.00    +0.381 C 
ATOM     26  O   UNL     1      -7.993  17.976  68.708  0.00  0.00    -0.244 OA
ATOM     27  O   UNL     1      -8.028  15.695  68.666  0.00  0.00    -0.244 OA
ENDBRANCH  24  25
ENDBRANCH  12  24
ENDBRANCH  11  12
ENDBRANCH   1  11
BRANCH   1  28
ATOM     28  C   UNL     1     -11.460  12.663  67.840  0.00  0.00    +0.166 C 
BRANCH  28  29
ATOM     29  O   UNL     1     -10.552  12.105  68.706  0.00  0.00    -0.313 OA
BRANCH  29  30
ATOM     30  P   UNL     1     -10.856  10.535  69.169  0.00  0.00    +0.214 P 
ATOM     31  O   UNL     1     -12.276  10.350  70.049  0.00  0.00    -0.437 OA
ATOM     32  O   UNL     1     -11.012   9.707  67.901  0.00  0.00    -0.517 OA
BRANCH  30  33
ATOM     33  O   UNL     1      -9.583   9.999  70.120  0.00  0.00    -0.317 OA
BRANCH  33  34
ATOM     34  C   UNL     1      -9.753   8.786  70.705  0.00  0.00    +0.122 C 
ATOM     35  C   UNL     1     -10.243   8.735  72.088  0.00  0.00    +0.031 C 
ATOM     36  C   UNL     1      -9.546   7.800  73.016  0.00  0.00    +0.011 C 
ATOM     37  C   UNL     1      -9.010   6.557  72.386  0.00  0.00    +0.038 C 
ATOM     38  C   UNL     1      -9.356   6.404  70.932  0.00  0.00    +0.011 C 
ATOM     39  C   UNL     1      -8.883   7.680  70.243  0.00  0.00    +0.031 C 
BRANCH  37  40
ATOM     40  C   UNL     1      -9.506   5.338  73.099  0.00  0.00    -0.019 A 
ATOM     41  C   UNL     1      -9.698   5.414  74.464  0.00  0.00    -0.004 A 
ATOM     42  C   UNL     1     -10.165   4.299  75.111  0.00  0.00    -0.000 A 
ATOM     43  C   UNL     1     -10.553   3.201  74.376  0.00  0.00    -0.000 A 
ATOM     44  C   UNL     1     -10.848   3.400  73.039  0.00  0.00    -0.000 A 
ATOM     45  C   UNL     1     -10.343   4.504  72.397  0.00  0.00    -0.004 A 
ENDBRANCH  37  40
BRANCH  37  46
ATOM     46  C   UNL     1      -7.519   6.535  72.503  0.00  0.00    -0.019 A 
ATOM     47  C   UNL     1      -6.782   5.462  72.020  0.00  0.00    -0.004 A 
ATOM     48  C   UNL     1      -5.418   5.597  71.844  0.00  0.00    -0.000 A 
ATOM     49  C   UNL     1      -4.753   6.683  72.397  0.00  0.00    -0.000 A 
ATOM     50  C   UNL     1      -5.439   7.573  73.207  0.00  0.00    -0.000 A 
ATOM     51  C   UNL     1      -6.818   7.562  73.122  0.00  0.00    -0.004 A 
ENDBRANCH  37  46
ENDBRANCH  33  34
ENDBRANCH  30  33
ENDBRANCH  29  30
ENDBRANCH  28  29
ENDBRANCH   1  28
TORSDOF 23
ENDMDL
MODEL 7
REMARK VINA RESULT:      -6.7      0.846      2.035
REMARK  Name = 
REMARK  23 active torsions:
REMARK  status: ('A' for Active; 'I' for Inactive)
REMARK    1  A    between atoms: C_2  and  C_4
REMARK    2  A    between atoms: C_4  and  N_5
REMARK    3  A    between atoms: N_5  and  C_6
REMARK    4  A    between atoms: N_5  and  C_48
REMARK    5  A    between atoms: C_6  and  C_7
REMARK    6  A    between atoms: C_7  and  N_8
REMARK    7  A    between atoms: N_8  and  C_9
REMARK    8  A    between atoms: N_8  and  C_13
REMARK    9  A    between atoms: C_9  and  C_10
REMARK   10  A    between atoms: C_13  and  C_14
REMARK   11  A    between atoms: C_14  and  C_15
REMARK   12  A    between atoms: C_14  and  N_39
REMARK   13  A    between atoms: C_15  and  O_16
REMARK   14  A    between atoms: O_16  and  P_17
REMARK   15  A    between atoms: P_17  and  O_20
REMARK   16  A    between atoms: O_20  and  C_21
REMARK   17  A    between atoms: C_24  and  C_25
REMARK   18  A    between atoms: C_24  and  C_31
REMARK   19  A    between atoms: N_39  and  C_40
REMARK   20  A    between atoms: N_39  and  C_44
REMARK   21  A    between atoms: C_40  and  C_41
REMARK   22  A    between atoms: C_44  and  C_45
REMARK   23  A    between atoms: C_48  and  C_49
REMARK                            x       y       z     vdW  Elec       q    Type
REMARK                         _______ _______ _______ _____ _____    ______ ____
ROOT
ATOM      1  C   UNL     1     -10.211  12.703  67.318  0.00  0.00    +0.105 C 
ENDROOT
BRANCH   1   2
ATOM      2  N   UNL     1     -10.786  12.866  65.869  0.00  0.00    -0.251 NA
BRANCH   2   3
ATOM      3  C   UNL     1     -11.921  13.699  65.916  0.00  0.00    +0.188 C 
BRANCH   3   4
ATOM      4  C   UNL     1     -11.735  14.872  65.040  0.00  0.00    +0.381 C 
ATOM      5  O   UNL     1     -12.602  14.948  63.944  0.00  0.00    -0.244 OA
ATOM      6  O   UNL     1     -10.532  15.228  64.857  0.00  0.00    -0.244 OA
ENDBRANCH   3   4
ENDBRANCH   2   3
BRANCH   2   7
ATOM      7  C   UNL     1     -10.913  11.583  65.291  0.00  0.00    +0.188 C 
BRANCH   7   8
ATOM      8  C   UNL     1     -10.985  11.742  63.808  0.00  0.00    +0.381 C 
ATOM      9  O   UNL     1     -12.229  11.620  63.225  0.00  0.00    -0.244 OA
ATOM     10  O   UNL     1      -9.986  11.738  63.061  0.00  0.00    -0.244 OA
ENDBRANCH   7   8
ENDBRANCH   2   7
ENDBRANCH   1   2
BRANCH   1  11
ATOM     11  C   UNL     1     -10.840  11.191  67.444  0.00  0.00    +0.091 C 
BRANCH  11  12
ATOM     12  N   UNL     1     -11.342  11.250  68.774  0.00  0.00    -0.261 NA
BRANCH  12  13
ATOM     13  C   UNL     1     -12.101  12.391  69.126  0.00  0.00    +0.090 C 
BRANCH  13  14
ATOM     14  C   UNL     1     -12.115  12.730  70.587  0.00  0.00    +0.091 C 
BRANCH  14  15
ATOM     15  N   UNL     1     -12.426  14.147  70.745  0.00  0.00    -0.252 NA
BRANCH  15  16
ATOM     16  C   UNL     1     -12.416  14.798  69.437  0.00  0.00    +0.188 C 
BRANCH  16  17
ATOM     17  C   UNL     1     -11.379  15.851  69.375  0.00  0.00    +0.381 C 
ATOM     18  O   UNL     1     -11.332  16.757  70.431  0.00  0.00    -0.244 OA
ATOM     19  O   UNL     1     -11.120  16.325  68.229  0.00  0.00    -0.244 OA
ENDBRANCH  16  17
ENDBRANCH  15  16
BRANCH  15  20
ATOM     20  C   UNL     1     -13.710  14.328  71.360  0.00  0.00    +0.188 C 
BRANCH  20  22
ATOM     21  O   UNL     1     -14.115  15.909  72.502  0.00  0.00    -0.244 OA
ATOM     22  C   UNL     1     -13.678  15.317  72.487  0.00  0.00    +0.381 C 
ATOM     23  O   UNL     1     -12.828  15.025  73.563  0.00  0.00    -0.244 OA
ENDBRANCH  20  22
ENDBRANCH  15  20
ENDBRANCH  14  15
ENDBRANCH  13  14
ENDBRANCH  12  13
BRANCH  12  24
ATOM     24  C   UNL     1     -10.605  10.610  69.791  0.00  0.00    +0.188 C 
BRANCH  24  25
ATOM     25  C   UNL     1     -11.181   9.250  70.039  0.00  0.00    +0.381 C 
ATOM     26  O   UNL     1     -12.242   9.067  70.931  0.00  0.00    -0.244 OA
ATOM     27  O   UNL     1     -10.722   8.246  69.440  0.00  0.00    -0.244 OA
ENDBRANCH  24  25
ENDBRANCH  12  24
ENDBRANCH  11  12
ENDBRANCH   1  11
BRANCH   1  28
ATOM     28  C   UNL     1      -8.753  12.156  66.804  0.00  0.00    +0.166 C 
BRANCH  28  29
ATOM     29  O   UNL     1      -8.049  11.813  67.933  0.00  0.00    -0.313 OA
BRANCH  29  30
ATOM     30  P   UNL     1      -6.780  12.814  68.332  0.00  0.00    +0.214 P 
ATOM     31  O   UNL     1      -5.825  12.233  69.588  0.00  0.00    -0.437 OA
ATOM     32  O   UNL     1      -5.880  12.922  67.109  0.00  0.00    -0.517 OA
BRANCH  30  33
ATOM     33  O   UNL     1      -7.395  14.303  68.795  0.00  0.00    -0.317 OA
BRANCH  33  34
ATOM     34  C   UNL     1      -6.881  15.381  68.151  0.00  0.00    +0.122 C 
ATOM     35  C   UNL     1      -6.068  16.335  68.916  0.00  0.00    +0.031 C 
ATOM     36  C   UNL     1      -6.346  17.783  68.698  0.00  0.00    +0.011 C 
ATOM     37  C   UNL     1      -6.795  18.147  67.321  0.00  0.00    +0.038 C 
ATOM     38  C   UNL     1      -6.792  17.002  66.349  0.00  0.00    +0.011 C 
ATOM     39  C   UNL     1      -7.632  15.899  66.984  0.00  0.00    +0.031 C 
BRANCH  37  40
ATOM     40  C   UNL     1      -5.938  19.231  66.746  0.00  0.00    -0.019 A 
ATOM     41  C   UNL     1      -5.754  20.380  67.488  0.00  0.00    -0.004 A 
ATOM     42  C   UNL     1      -4.957  21.365  66.963  0.00  0.00    -0.000 A 
ATOM     43  C   UNL     1      -4.265  21.127  65.797  0.00  0.00    -0.000 A 
ATOM     44  C   UNL     1      -4.068  19.807  65.429  0.00  0.00    -0.000 A 
ATOM     45  C   UNL     1      -4.898  18.838  65.937  0.00  0.00    -0.004 A 
ENDBRANCH  37  40
BRANCH  37  46
ATOM     46  C   UNL     1      -8.187  18.695  67.373  0.00  0.00    -0.019 A 
ATOM     47  C   UNL     1      -8.841  18.863  68.586  0.00  0.00    -0.004 A 
ATOM     48  C   UNL     1      -9.971  19.656  68.646  0.00  0.00    -0.000 A 
ATOM     49  C   UNL     1     -10.603  20.051  67.474  0.00  0.00    -0.000 A 
ATOM     50  C   UNL     1     -10.157  19.568  66.254  0.00  0.00    -0.000 A 
ATOM     51  C   UNL     1      -8.887  19.027  66.220  0.00  0.00    -0.004 A 
ENDBRANCH  37  46
ENDBRANCH  33  34
ENDBRANCH  30  33
ENDBRANCH  29  30
ENDBRANCH  28  29
ENDBRANCH   1  28
TORSDOF 23
ENDMDL
MODEL 8
REMARK VINA RESULT:      -6.7      2.479      7.322
REMARK  Name = 
REMARK  23 active torsions:
REMARK  status: ('A' for Active; 'I' for Inactive)
REMARK    1  A    between atoms: C_2  and  C_4
REMARK    2  A    between atoms: C_4  and  N_5
REMARK    3  A    between atoms: N_5  and  C_6
REMARK    4  A    between atoms: N_5  and  C_48
REMARK    5  A    between atoms: C_6  and  C_7
REMARK    6  A    between atoms: C_7  and  N_8
REMARK    7  A    between atoms: N_8  and  C_9
REMARK    8  A    between atoms: N_8  and  C_13
REMARK    9  A    between atoms: C_9  and  C_10
REMARK   10  A    between atoms: C_13  and  C_14
REMARK   11  A    between atoms: C_14  and  C_15
REMARK   12  A    between atoms: C_14  and  N_39
REMARK   13  A    between atoms: C_15  and  O_16
REMARK   14  A    between atoms: O_16  and  P_17
REMARK   15  A    between atoms: P_17  and  O_20
REMARK   16  A    between atoms: O_20  and  C_21
REMARK   17  A    between atoms: C_24  and  C_25
REMARK   18  A    between atoms: C_24  and  C_31
REMARK   19  A    between atoms: N_39  and  C_40
REMARK   20  A    between atoms: N_39  and  C_44
REMARK   21  A    between atoms: C_40  and  C_41
REMARK   22  A    between atoms: C_44  and  C_45
REMARK   23  A    between atoms: C_48  and  C_49
REMARK                            x       y       z     vdW  Elec       q    Type
REMARK                         _______ _______ _______ _____ _____    ______ ____
ROOT
ATOM      1  C   UNL     1      -8.400  17.085  68.901  0.00  0.00    +0.105 C 
ENDROOT
BRANCH   1   2
ATOM      2  N   UNL     1      -8.114  18.413  68.120  0.00  0.00    -0.251 NA
BRANCH   2   3
ATOM      3  C   UNL     1      -6.759  18.762  68.287  0.00  0.00    +0.188 C 
BRANCH   3   4
ATOM      4  C   UNL     1      -6.585  20.222  68.167  0.00  0.00    +0.381 C 
ATOM      5  O   UNL     1      -6.390  20.700  66.866  0.00  0.00    -0.244 OA
ATOM      6  O   UNL     1      -5.913  20.768  69.094  0.00  0.00    -0.244 OA
ENDBRANCH   3   4
ENDBRANCH   2   3
BRANCH   2   7
ATOM      7  C   UNL     1      -9.104  19.360  68.468  0.00  0.00    +0.188 C 
BRANCH   7   8
ATOM      8  C   UNL     1      -9.979  19.581  67.278  0.00  0.00    +0.381 C 
ATOM      9  O   UNL     1     -11.327  19.340  67.439  0.00  0.00    -0.244 OA
ATOM     10  O   UNL     1      -9.546  19.733  66.118  0.00  0.00    -0.244 OA
ENDBRANCH   7   8
ENDBRANCH   2   7
ENDBRANCH   1   2
BRANCH   1  11
ATOM     11  C   UNL     1      -8.863  16.324  67.521  0.00  0.00    +0.091 C 
BRANCH  11  12
ATOM     12  N   UNL     1     -10.237  16.101  67.819  0.00  0.00    -0.261 NA
BRANCH  12  13
ATOM     13  C   UNL     1     -10.593  16.011  69.186  0.00  0.00    +0.090 C 
BRANCH  13  14
ATOM     14  C   UNL     1     -12.061  16.103  69.477  0.00  0.00    +0.091 C 
BRANCH  14  15
ATOM     15  N   UNL     1     -12.363  15.312  70.665  0.00  0.00    -0.252 NA
BRANCH  15  16
ATOM     16  C   UNL     1     -11.576  14.081  70.644  0.00  0.00    +0.188 C 
BRANCH  16  17
ATOM     17  C   UNL     1     -12.452  12.889  70.622  0.00  0.00    +0.381 C 
ATOM     18  O   UNL     1     -13.134  12.583  71.797  0.00  0.00    -0.244 OA
ATOM     19  O   UNL     1     -12.046  11.898  69.945  0.00  0.00    -0.244 OA
ENDBRANCH  16  17
ENDBRANCH  15  16
BRANCH  15  20
ATOM     20  C   UNL     1     -12.070  16.046  71.862  0.00  0.00    +0.188 C 
BRANCH  20  22
ATOM     21  O   UNL     1     -13.894  15.938  72.656  0.00  0.00    -0.244 OA
ATOM     22  C   UNL     1     -13.189  15.997  72.860  0.00  0.00    +0.381 C 
ATOM     23  O   UNL     1     -12.831  15.984  74.215  0.00  0.00    -0.244 OA
ENDBRANCH  20  22
ENDBRANCH  15  20
ENDBRANCH  14  15
ENDBRANCH  13  14
ENDBRANCH  12  13
BRANCH  12  24
ATOM     24  C   UNL     1     -11.010  15.377  66.889  0.00  0.00    +0.188 C 
BRANCH  24  25
ATOM     25  C   UNL     1     -10.514  15.661  65.505  0.00  0.00    +0.381 C 
ATOM     26  O   UNL     1     -10.764  16.891  64.888  0.00  0.00    -0.244 OA
ATOM     27  O   UNL     1      -9.854  14.799  64.875  0.00  0.00    -0.244 OA
ENDBRANCH  24  25
ENDBRANCH  12  24
ENDBRANCH  11  12
ENDBRANCH   1  11
BRANCH   1  28
ATOM     28  C   UNL     1      -6.854  16.549  68.790  0.00  0.00    +0.166 C 
BRANCH  28  29
ATOM     29  O   UNL     1      -6.858  15.258  69.258  0.00  0.00    -0.313 OA
BRANCH  29  30
ATOM     30  P   UNL     1      -5.706  14.245  68.611  0.00  0.00    +0.214 P 
ATOM     31  O   UNL     1      -4.272  15.020  68.202  0.00  0.00    -0.437 OA
ATOM     32  O   UNL     1      -5.360  13.209  69.672  0.00  0.00    -0.517 OA
BRANCH  30  33
ATOM     33  O   UNL     1      -6.329  13.540  67.223  0.00  0.00    -0.317 OA
BRANCH  33  34
ATOM     34  C   UNL     1      -7.132  12.464  67.416  0.00  0.00    +0.122 C 
ATOM     35  C   UNL     1      -6.757  11.187  66.796  0.00  0.00    +0.031 C 
ATOM     36  C   UNL     1      -7.842  10.426  66.113  0.00  0.00    +0.011 C 
ATOM     37  C   UNL     1      -9.201  10.575  66.712  0.00  0.00    +0.038 C 
ATOM     38  C   UNL     1      -9.233  11.389  67.974  0.00  0.00    +0.011 C 
ATOM     39  C   UNL     1      -8.573  12.722  67.641  0.00  0.00    +0.031 C 
BRANCH  37  40
ATOM     40  C   UNL     1      -9.801   9.238  67.020  0.00  0.00    -0.019 A 
ATOM     41  C   UNL     1      -9.445   8.165  66.228  0.00  0.00    -0.004 A 
ATOM     42  C   UNL     1      -9.987   6.941  66.522  0.00  0.00    -0.000 A 
ATOM     43  C   UNL     1     -10.746   6.791  67.661  0.00  0.00    -0.000 A 
ATOM     44  C   UNL     1     -10.594   7.739  68.658  0.00  0.00    -0.000 A 
ATOM     45  C   UNL     1     -10.083   8.973  68.339  0.00  0.00    -0.004 A 
ENDBRANCH  37  40
BRANCH  37  46
ATOM     46  C   UNL     1     -10.117  11.229  65.726  0.00  0.00    -0.019 A 
ATOM     47  C   UNL     1      -9.745  11.375  64.396  0.00  0.00    -0.004 A 
ATOM     48  C   UNL     1     -10.706  11.677  63.450  0.00  0.00    -0.000 A 
ATOM     49  C   UNL     1     -11.965  12.099  63.852  0.00  0.00    -0.000 A 
ATOM     50  C   UNL     1     -12.225  12.313  65.196  0.00  0.00    -0.000 A 
ATOM     51  C   UNL     1     -11.353  11.739  66.102  0.00  0.00    -0.004 A 
ENDBRANCH  37  46
ENDBRANCH  33  34
ENDBRANCH  30  33
ENDBRANCH  29  30
ENDBRANCH  28  29
ENDBRANCH   1  28
TORSDOF 23
ENDMDL
MODEL 9
REMARK VINA RESULT:      -6.6      2.050      4.148
REMARK  Name = 
REMARK  23 active torsions:
REMARK  status: ('A' for Active; 'I' for Inactive)
REMARK    1  A    between atoms: C_2  and  C_4
REMARK    2  A    between atoms: C_4  and  N_5
REMARK    3  A    between atoms: N_5  and  C_6
REMARK    4  A    between atoms: N_5  and  C_48
REMARK    5  A    between atoms: C_6  and  C_7
REMARK    6  A    between atoms: C_7  and  N_8
REMARK    7  A    between atoms: N_8  and  C_9
REMARK    8  A    between atoms: N_8  and  C_13
REMARK    9  A    between atoms: C_9  and  C_10
REMARK   10  A    between atoms: C_13  and  C_14
REMARK   11  A    between atoms: C_14  and  C_15
REMARK   12  A    between atoms: C_14  and  N_39
REMARK   13  A    between atoms: C_15  and  O_16
REMARK   14  A    between atoms: O_16  and  P_17
REMARK   15  A    between atoms: P_17  and  O_20
REMARK   16  A    between atoms: O_20  and  C_21
REMARK   17  A    between atoms: C_24  and  C_25
REMARK   18  A    between atoms: C_24  and  C_31
REMARK   19  A    between atoms: N_39  and  C_40
REMARK   20  A    between atoms: N_39  and  C_44
REMARK   21  A    between atoms: C_40  and  C_41
REMARK   22  A    between atoms: C_44  and  C_45
REMARK   23  A    between atoms: C_48  and  C_49
REMARK                            x       y       z     vdW  Elec       q    Type
REMARK                         _______ _______ _______ _____ _____    ______ ____
ROOT
ATOM      1  C   UNL     1      -9.408  14.497  66.823  0.00  0.00    +0.105 C 
ENDROOT
BRANCH   1   2
ATOM      2  N   UNL     1     -10.207  13.386  66.058  0.00  0.00    -0.251 NA
BRANCH   2   3
ATOM      3  C   UNL     1      -9.542  12.154  66.211  0.00  0.00    +0.188 C 
BRANCH   3   4
ATOM      4  C   UNL     1     -10.507  11.039  66.163  0.00  0.00    +0.381 C 
ATOM      5  O   UNL     1     -10.611  10.385  64.930  0.00  0.00    -0.244 OA
ATOM      6  O   UNL     1     -11.577  11.217  66.820  0.00  0.00    -0.244 OA
ENDBRANCH   3   4
ENDBRANCH   2   3
BRANCH   2   7
ATOM      7  C   UNL     1     -10.480  13.850  64.752  0.00  0.00    +0.188 C 
BRANCH   7   8
ATOM      8  C   UNL     1     -11.957  14.020  64.613  0.00  0.00    +0.381 C 
ATOM      9  O   UNL     1     -12.692  14.079  65.778  0.00  0.00    -0.244 OA
ATOM     10  O   UNL     1     -12.574  13.872  63.539  0.00  0.00    -0.244 OA
ENDBRANCH   7   8
ENDBRANCH   2   7
ENDBRANCH   1   2
BRANCH   1  11
ATOM     11  C   UNL     1     -10.285  14.246  68.189  0.00  0.00    +0.091 C 
BRANCH  11  12
ATOM     12  N   UNL     1     -10.658  15.588  68.484  0.00  0.00    -0.261 NA
BRANCH  12  13
ATOM     13  C   UNL     1     -11.569  15.784  69.548  0.00  0.00    +0.090 C 
BRANCH  13  14
ATOM     14  C   UNL     1     -11.139  15.232  70.876  0.00  0.00    +0.091 C 
BRANCH  14  15
ATOM     15  N   UNL     1     -12.276  15.248  71.790  0.00  0.00    -0.252 NA
BRANCH  15  16
ATOM     16  C   UNL     1     -12.126  16.351  72.736  0.00  0.00    +0.188 C 
BRANCH  16  17
ATOM     17  C   UNL     1     -12.483  15.929  74.107  0.00  0.00    +0.381 C 
ATOM     18  O   UNL     1     -12.359  16.881  75.116  0.00  0.00    -0.244 OA
ATOM     19  O   UNL     1     -12.187  14.741  74.431  0.00  0.00    -0.244 OA
ENDBRANCH  16  17
ENDBRANCH  15  16
BRANCH  15  20
ATOM     20  C   UNL     1     -13.511  15.396  71.074  0.00  0.00    +0.188 C 
BRANCH  20  22
ATOM     21  O   UNL     1     -15.338  14.783  71.583  0.00  0.00    -0.244 OA
ATOM     22  C   UNL     1     -14.631  14.606  71.685  0.00  0.00    +0.381 C 
ATOM     23  O   UNL     1     -14.277  13.454  72.401  0.00  0.00    -0.244 OA
ENDBRANCH  20  22
ENDBRANCH  15  20
ENDBRANCH  14  15
ENDBRANCH  13  14
ENDBRANCH  12  13
BRANCH  12  24
ATOM     24  C   UNL     1     -10.667  16.522  67.429  0.00  0.00    +0.188 C 
BRANCH  24  25
ATOM     25  C   UNL     1     -10.279  17.869  67.956  0.00  0.00    +0.381 C 
ATOM     26  O   UNL     1     -11.002  19.015  67.608  0.00  0.00    -0.244 OA
ATOM     27  O   UNL     1      -9.298  17.992  68.730  0.00  0.00    -0.244 OA
ENDBRANCH  24  25
ENDBRANCH  12  24
ENDBRANCH  11  12
ENDBRANCH   1  11
BRANCH   1  28
ATOM     28  C   UNL     1      -8.211  13.477  67.290  0.00  0.00    +0.166 C 
BRANCH  28  29
ATOM     29  O   UNL     1      -7.528  14.118  68.296  0.00  0.00    -0.313 OA
BRANCH  29  30
ATOM     30  P   UNL     1      -5.945  13.650  68.514  0.00  0.00    +0.214 P 
ATOM     31  O   UNL     1      -5.736  12.507  69.728  0.00  0.00    -0.437 OA
ATOM     32  O   UNL     1      -5.476  13.007  67.217  0.00  0.00    -0.517 OA
BRANCH  30  33
ATOM     33  O   UNL     1      -5.035  15.002  68.911  0.00  0.00    -0.317 OA
BRANCH  33  34
ATOM     34  C   UNL     1      -5.136  16.054  68.061  0.00  0.00    +0.122 C 
ATOM     35  C   UNL     1      -4.054  16.285  67.097  0.00  0.00    +0.031 C 
ATOM     36  C   UNL     1      -3.576  17.689  66.944  0.00  0.00    +0.011 C 
ATOM     37  C   UNL     1      -4.617  18.742  67.139  0.00  0.00    +0.038 C 
ATOM     38  C   UNL     1      -6.003  18.206  67.354  0.00  0.00    +0.011 C 
ATOM     39  C   UNL     1      -5.909  17.230  68.523  0.00  0.00    +0.031 C 
BRANCH  37  40
ATOM     40  C   UNL     1      -4.668  19.669  65.965  0.00  0.00    -0.019 A 
ATOM     41  C   UNL     1      -3.475  20.140  65.453  0.00  0.00    -0.004 A 
ATOM     42  C   UNL     1      -3.526  20.978  64.370  0.00  0.00    -0.000 A 
ATOM     43  C   UNL     1      -4.732  21.211  63.748  0.00  0.00    -0.000 A 
ATOM     44  C   UNL     1      -5.749  20.297  63.965  0.00  0.00    -0.000 A 
ATOM     45  C   UNL     1      -5.700  19.489  65.075  0.00  0.00    -0.004 A 
ENDBRANCH  37  40
BRANCH  37  46
ATOM     46  C   UNL     1      -4.265  19.584  68.324  0.00  0.00    -0.019 A 
ATOM     47  C   UNL     1      -5.113  20.597  68.754  0.00  0.00    -0.004 A 
ATOM     48  C   UNL     1      -4.940  21.139  70.014  0.00  0.00    -0.000 A 
ATOM     49  C   UNL     1      -3.778  20.878  70.727  0.00  0.00    -0.000 A 
ATOM     50  C   UNL     1      -2.752  20.158  70.135  0.00  0.00    -0.000 A 
ATOM     51  C   UNL     1      -3.074  19.412  69.018  0.00  0.00    -0.004 A 
ENDBRANCH  37  46
ENDBRANCH  33  34
ENDBRANCH  30  33
ENDBRANCH  29  30
ENDBRANCH  28  29
ENDBRANCH   1  28
TORSDOF 23
ENDMDL
