MODEL 1
REMARK VINA RESULT:      -7.8      0.000      0.000
REMARK  Name = 
REMARK  13 active torsions:
REMARK  status: ('A' for Active; 'I' for Inactive)
REMARK    1  A    between atoms: C_2  and  O_3
REMARK    2  A    between atoms: O_3  and  C_4
REMARK    3  A    between atoms: C_10  and  C_11
REMARK    4  A    between atoms: C_11  and  O_13
REMARK    5  A    between atoms: O_13  and  C_14
REMARK    6  A    between atoms: C_14  and  O_16
REMARK    7  A    between atoms: O_16  and  C_17
REMARK    8  A    between atoms: C_17  and  O_19
REMARK    9  A    between atoms: O_19  and  C_20
REMARK   10  A    between atoms: N_27  and  C_28
REMARK   11  A    between atoms: C_28  and  C_29
REMARK   12  A    between atoms: C_32  and  C_33
REMARK   13  A    between atoms: C_38  and  C_39
REMARK                            x       y       z     vdW  Elec       q    Type
REMARK                         _______ _______ _______ _____ _____    ______ ____
ROOT
ATOM      1  C   UNL     1     -10.816  16.153  65.509  0.00  0.00    +0.301 A 
ATOM      2  N   UNL     1     -10.744  15.087  66.345  0.00  0.00    -0.277 N 
ATOM      3  C   UNL     1     -11.118  14.003  65.625  0.00  0.00    +0.088 A 
ATOM      4  C   UNL     1     -11.567  14.412  64.374  0.00  0.00    +0.102 A 
ATOM      5  C   UNL     1     -12.281  13.488  63.639  0.00  0.00    +0.021 A 
ATOM      6  C   UNL     1     -12.313  12.175  64.087  0.00  0.00    +0.002 A 
ATOM      7  C   UNL     1     -11.477  11.756  65.115  0.00  0.00    +0.008 A 
ATOM      8  C   UNL     1     -10.808  12.693  65.874  0.00  0.00    +0.093 A 
ATOM      9  N   UNL     1     -11.327  15.730  64.327  0.00  0.00    -0.194 NA
ENDROOT
BRANCH   8  10
ATOM     10  C   UNL     1      -9.826  12.355  66.918  0.00  0.00    +0.345 C 
ATOM     11  O   UNL     1      -8.613  12.517  66.556  0.00  0.00    -0.245 OA
BRANCH  10  12
ATOM     12  O   UNL     1      -9.953  11.035  67.344  0.00  0.00    -0.410 OA
BRANCH  12  13
ATOM     13  C   UNL     1     -10.193  10.861  68.875  0.00  0.00    +0.348 C 
ATOM     14  C   UNL     1     -10.478   9.225  68.771  0.00  0.00    +0.100 C 
BRANCH  13  15
ATOM     15  O   UNL     1     -11.718  11.215  68.826  0.00  0.00    -0.382 OA
BRANCH  15  16
ATOM     16  C   UNL     1     -12.140  11.728  70.055  0.00  0.00    +0.514 C 
ATOM     17  O   UNL     1     -12.012  10.945  71.040  0.00  0.00    -0.203 OA
BRANCH  16  18
ATOM     18  O   UNL     1     -12.448  13.032  70.344  0.00  0.00    -0.422 OA
BRANCH  18  19
ATOM     19  C   UNL     1     -12.460  13.576  71.670  0.00  0.00    +0.172 C 
ATOM     20  C   UNL     1     -13.888  13.687  72.106  0.00  0.00    +0.044 C 
ATOM     21  C   UNL     1     -14.378  15.109  72.078  0.00  0.00    +0.004 C 
ATOM     22  C   UNL     1     -13.512  15.995  72.929  0.00  0.00    +0.000 C 
ATOM     23  C   UNL     1     -12.080  15.937  72.513  0.00  0.00    +0.004 C 
ATOM     24  C   UNL     1     -11.721  14.864  71.567  0.00  0.00    +0.044 C 
ENDBRANCH  18  19
ENDBRANCH  16  18
ENDBRANCH  15  16
ENDBRANCH  13  15
ENDBRANCH  12  13
ENDBRANCH  10  12
ENDBRANCH   8  10
BRANCH   1  25
ATOM     25  O   UNL     1     -10.040  17.281  65.771  0.00  0.00    -0.448 OA
BRANCH  25  27
ATOM     26  C   UNL     1     -10.344  18.923  66.065  0.00  0.00    +0.051 C 
ATOM     27  C   UNL     1     -10.597  18.587  65.786  0.00  0.00    +0.209 C 
ENDBRANCH  25  27
ENDBRANCH   1  25
BRANCH   2  28
ATOM     28  C   UNL     1     -10.882  15.099  67.799  0.00  0.00    +0.137 C 
BRANCH  28  29
ATOM     29  C   UNL     1      -9.669  15.760  68.385  0.00  0.00    +0.001 A 
ATOM     30  C   UNL     1      -8.379  15.425  67.996  0.00  0.00    -0.002 A 
ATOM     31  C   UNL     1      -7.321  16.253  68.358  0.00  0.00    -0.000 A 
ATOM     32  C   UNL     1      -7.586  17.619  68.290  0.00  0.00    -0.001 A 
ATOM     33  C   UNL     1      -8.810  17.930  68.879  0.00  0.00    -0.000 A 
ATOM     34  C   UNL     1      -9.773  16.950  69.099  0.00  0.00    -0.002 A 
BRANCH  32  35
ATOM     35  C   UNL     1      -6.533  18.619  68.520  0.00  0.00    -0.006 A 
ATOM     36  C   UNL     1      -6.390  19.661  67.611  0.00  0.00    -0.015 A 
ATOM     37  C   UNL     1      -5.930  20.899  68.048  0.00  0.00    -0.007 A 
ATOM     38  C   UNL     1      -5.068  20.941  69.132  0.00  0.00    -0.001 A 
ATOM     39  C   UNL     1      -5.134  19.899  70.031  0.00  0.00    -0.000 A 
ATOM     40  C   UNL     1      -6.044  18.879  69.797  0.00  0.00    -0.001 A 
BRANCH  36  41
ATOM     41  C   UNL     1      -6.598  19.376  66.184  0.00  0.00    +0.044 A 
ATOM     42  N   UNL     1      -6.842  20.386  65.313  0.00  0.00    -0.289 NA
ATOM     43  N   UNL     1      -6.414  20.059  64.095  0.00  0.00    -0.218 NA
ATOM     44  N   UNL     1      -5.851  18.870  64.179  0.00  0.00    -0.218 NA
ATOM     45  N   UNL     1      -5.926  18.476  65.425  0.00  0.00    -0.289 NA
ENDBRANCH  36  41
ENDBRANCH  32  35
ENDBRANCH  28  29
ENDBRANCH   2  28
TORSDOF 13
ENDMDL
MODEL 2
REMARK VINA RESULT:      -7.8      4.034      8.796
REMARK  Name = 
REMARK  13 active torsions:
REMARK  status: ('A' for Active; 'I' for Inactive)
REMARK    1  A    between atoms: C_2  and  O_3
REMARK    2  A    between atoms: O_3  and  C_4
REMARK    3  A    between atoms: C_10  and  C_11
REMARK    4  A    between atoms: C_11  and  O_13
REMARK    5  A    between atoms: O_13  and  C_14
REMARK    6  A    between atoms: C_14  and  O_16
REMARK    7  A    between atoms: O_16  and  C_17
REMARK    8  A    between atoms: C_17  and  O_19
REMARK    9  A    between atoms: O_19  and  C_20
REMARK   10  A    between atoms: N_27  and  C_28
REMARK   11  A    between atoms: C_28  and  C_29
REMARK   12  A    between atoms: C_32  and  C_33
REMARK   13  A    between atoms: C_38  and  C_39
REMARK                            x       y       z     vdW  Elec       q    Type
REMARK                         _______ _______ _______ _____ _____    ______ ____
ROOT
ATOM      1  C   UNL     1     -12.364  11.523  70.594  0.00  0.00    +0.301 A 
ATOM      2  N   UNL     1     -12.079  12.638  69.876  0.00  0.00    -0.277 N 
ATOM      3  C   UNL     1     -12.425  13.696  70.647  0.00  0.00    +0.088 A 
ATOM      4  C   UNL     1     -13.063  13.241  71.795  0.00  0.00    +0.102 A 
ATOM      5  C   UNL     1     -13.763  14.177  72.528  0.00  0.00    +0.021 A 
ATOM      6  C   UNL     1     -13.603  15.517  72.205  0.00  0.00    +0.002 A 
ATOM      7  C   UNL     1     -12.609  15.920  71.322  0.00  0.00    +0.008 A 
ATOM      8  C   UNL     1     -11.952  14.978  70.559  0.00  0.00    +0.093 A 
ATOM      9  N   UNL     1     -12.969  11.904  71.745  0.00  0.00    -0.194 NA
ENDROOT
BRANCH   8  10
ATOM     10  C   UNL     1     -10.820  15.285  69.669  0.00  0.00    +0.345 C 
ATOM     11  O   UNL     1      -9.678  15.126  70.215  0.00  0.00    -0.245 OA
BRANCH  10  12
ATOM     12  O   UNL     1     -10.869  16.595  69.198  0.00  0.00    -0.410 OA
BRANCH  12  13
ATOM     13  C   UNL     1      -9.725  16.979  68.210  0.00  0.00    +0.348 C 
ATOM     14  C   UNL     1     -10.141  18.588  68.158  0.00  0.00    +0.100 C 
BRANCH  13  15
ATOM     15  O   UNL     1     -10.533  16.641  66.912  0.00  0.00    -0.382 OA
BRANCH  15  16
ATOM     16  C   UNL     1      -9.767  15.847  66.053  0.00  0.00    +0.514 C 
ATOM     17  O   UNL     1      -8.651  16.337  65.716  0.00  0.00    -0.203 OA
BRANCH  16  18
ATOM     18  O   UNL     1      -9.981  14.532  65.733  0.00  0.00    -0.422 OA
BRANCH  18  19
ATOM     19  C   UNL     1     -10.588  14.095  64.510  0.00  0.00    +0.172 C 
ATOM     20  C   UNL     1     -12.068  14.263  64.648  0.00  0.00    +0.044 C 
ATOM     21  C   UNL     1     -12.769  12.948  64.857  0.00  0.00    +0.004 C 
ATOM     22  C   UNL     1     -12.462  11.990  63.741  0.00  0.00    +0.000 C 
ATOM     23  C   UNL     1     -10.996  11.771  63.582  0.00  0.00    +0.004 C 
ATOM     24  C   UNL     1     -10.117  12.696  64.323  0.00  0.00    +0.044 C 
ENDBRANCH  18  19
ENDBRANCH  16  18
ENDBRANCH  15  16
ENDBRANCH  13  15
ENDBRANCH  12  13
ENDBRANCH  10  12
ENDBRANCH   8  10
BRANCH   1  25
ATOM     25  O   UNL     1     -11.682  10.339  70.317  0.00  0.00    -0.448 OA
BRANCH  25  27
ATOM     26  C   UNL     1     -10.903   9.118  71.199  0.00  0.00    +0.051 C 
ATOM     27  C   UNL     1     -11.222   9.480  71.349  0.00  0.00    +0.209 C 
ENDBRANCH  25  27
ENDBRANCH   1  25
BRANCH   2  28
ATOM     28  C   UNL     1     -12.038  12.760  68.421  0.00  0.00    +0.137 C 
BRANCH  28  29
ATOM     29  C   UNL     1     -10.860  11.982  67.913  0.00  0.00    +0.001 A 
ATOM     30  C   UNL     1      -9.563  12.235  68.338  0.00  0.00    -0.002 A 
ATOM     31  C   UNL     1      -8.560  11.312  68.055  0.00  0.00    -0.000 A 
ATOM     32  C   UNL     1      -8.934   9.975  68.172  0.00  0.00    -0.001 A 
ATOM     33  C   UNL     1     -10.155   9.732  67.548  0.00  0.00    -0.000 A 
ATOM     34  C   UNL     1     -11.031  10.771  67.247  0.00  0.00    -0.002 A 
BRANCH  32  35
ATOM     35  C   UNL     1      -7.954   8.888  68.027  0.00  0.00    -0.006 A 
ATOM     36  C   UNL     1      -7.422   8.310  69.174  0.00  0.00    -0.015 A 
ATOM     37  C   UNL     1      -7.050   6.969  69.162  0.00  0.00    -0.007 A 
ATOM     38  C   UNL     1      -6.622   6.411  67.968  0.00  0.00    -0.001 A 
ATOM     39  C   UNL     1      -7.078   6.987  66.803  0.00  0.00    -0.000 A 
ATOM     40  C   UNL     1      -7.924   8.083  66.892  0.00  0.00    -0.001 A 
BRANCH  36  41
ATOM     41  C   UNL     1      -7.139   9.178  70.326  0.00  0.00    +0.044 A 
ATOM     42  N   UNL     1      -7.266   8.702  71.589  0.00  0.00    -0.289 NA
ATOM     43  N   UNL     1      -6.442   9.348  72.411  0.00  0.00    -0.218 NA
ATOM     44  N   UNL     1      -5.748  10.203  71.686  0.00  0.00    -0.218 NA
ATOM     45  N   UNL     1      -6.133  10.080  70.442  0.00  0.00    -0.289 NA
ENDBRANCH  36  41
ENDBRANCH  32  35
ENDBRANCH  28  29
ENDBRANCH   2  28
TORSDOF 13
ENDMDL
MODEL 3
REMARK VINA RESULT:      -7.7      3.080      8.526
REMARK  Name = 
REMARK  13 active torsions:
REMARK  status: ('A' for Active; 'I' for Inactive)
REMARK    1  A    between atoms: C_2  and  O_3
REMARK    2  A    between atoms: O_3  and  C_4
REMARK    3  A    between atoms: C_10  and  C_11
REMARK    4  A    between atoms: C_11  and  O_13
REMARK    5  A    between atoms: O_13  and  C_14
REMARK    6  A    between atoms: C_14  and  O_16
REMARK    7  A    between atoms: O_16  and  C_17
REMARK    8  A    between atoms: C_17  and  O_19
REMARK    9  A    between atoms: O_19  and  C_20
REMARK   10  A    between atoms: N_27  and  C_28
REMARK   11  A    between atoms: C_28  and  C_29
REMARK   12  A    between atoms: C_32  and  C_33
REMARK   13  A    between atoms: C_38  and  C_39
REMARK                            x       y       z     vdW  Elec       q    Type
REMARK                         _______ _______ _______ _____ _____    ______ ____
ROOT
ATOM      1  C   UNL     1      -7.262  13.578  67.963  0.00  0.00    +0.301 A 
ATOM      2  N   UNL     1      -6.989  14.863  67.627  0.00  0.00    -0.277 N 
ATOM      3  C   UNL     1      -6.096  15.322  68.536  0.00  0.00    +0.088 A 
ATOM      4  C   UNL     1      -5.921  14.368  69.532  0.00  0.00    +0.102 A 
ATOM      5  C   UNL     1      -5.306  14.789  70.693  0.00  0.00    +0.021 A 
ATOM      6  C   UNL     1      -4.717  16.046  70.706  0.00  0.00    +0.002 A 
ATOM      7  C   UNL     1      -4.558  16.766  69.528  0.00  0.00    +0.008 A 
ATOM      8  C   UNL     1      -5.218  16.362  68.387  0.00  0.00    +0.093 A 
ATOM      9  N   UNL     1      -6.619  13.299  69.123  0.00  0.00    -0.194 NA
ENDROOT
BRANCH   8  10
ATOM     10  C   UNL     1      -5.042  16.993  67.069  0.00  0.00    +0.345 C 
ATOM     11  O   UNL     1      -4.148  16.439  66.347  0.00  0.00    -0.245 OA
BRANCH  10  12
ATOM     12  O   UNL     1      -4.702  18.340  67.178  0.00  0.00    -0.410 OA
BRANCH  12  13
ATOM     13  C   UNL     1      -4.054  18.957  65.901  0.00  0.00    +0.348 C 
ATOM     14  C   UNL     1      -3.132  20.053  66.747  0.00  0.00    +0.100 C 
BRANCH  13  15
ATOM     15  O   UNL     1      -5.199  19.993  65.641  0.00  0.00    -0.382 OA
BRANCH  15  16
ATOM     16  C   UNL     1      -6.244  19.397  64.930  0.00  0.00    +0.514 C 
ATOM     17  O   UNL     1      -5.949  19.000  63.767  0.00  0.00    -0.203 OA
BRANCH  16  18
ATOM     18  O   UNL     1      -7.457  18.995  65.426  0.00  0.00    -0.422 OA
BRANCH  18  19
ATOM     19  C   UNL     1      -8.340  19.845  66.169  0.00  0.00    +0.172 C 
ATOM     20  C   UNL     1      -7.701  20.124  67.493  0.00  0.00    +0.044 C 
ATOM     21  C   UNL     1      -8.350  19.350  68.608  0.00  0.00    +0.004 C 
ATOM     22  C   UNL     1      -9.823  19.638  68.678  0.00  0.00    +0.000 C 
ATOM     23  C   UNL     1     -10.509  19.349  67.386  0.00  0.00    +0.004 C 
ATOM     24  C   UNL     1      -9.631  19.106  66.225  0.00  0.00    +0.044 C 
ENDBRANCH  18  19
ENDBRANCH  16  18
ENDBRANCH  15  16
ENDBRANCH  13  15
ENDBRANCH  12  13
ENDBRANCH  10  12
ENDBRANCH   8  10
BRANCH   1  25
ATOM     25  O   UNL     1      -7.719  12.698  66.984  0.00  0.00    -0.448 OA
BRANCH  25  27
ATOM     26  C   UNL     1      -9.219  11.996  66.620  0.00  0.00    +0.051 C 
ATOM     27  C   UNL     1      -8.997  12.085  67.065  0.00  0.00    +0.209 C 
ENDBRANCH  25  27
ENDBRANCH   1  25
BRANCH   2  28
ATOM     28  C   UNL     1      -7.860  15.789  66.907  0.00  0.00    +0.137 C 
BRANCH  28  29
ATOM     29  C   UNL     1      -9.170  15.870  67.635  0.00  0.00    +0.001 A 
ATOM     30  C   UNL     1     -10.368  15.475  67.055  0.00  0.00    -0.002 A 
ATOM     31  C   UNL     1     -11.491  15.308  67.859  0.00  0.00    -0.000 A 
ATOM     32  C   UNL     1     -11.252  14.718  69.099  0.00  0.00    -0.001 A 
ATOM     33  C   UNL     1     -10.153  15.294  69.731  0.00  0.00    -0.000 A 
ATOM     34  C   UNL     1      -9.215  16.035  69.017  0.00  0.00    -0.002 A 
BRANCH  32  35
ATOM     35  C   UNL     1     -12.353  14.362  70.006  0.00  0.00    -0.006 A 
ATOM     36  C   UNL     1     -12.317  13.131  70.650  0.00  0.00    -0.015 A 
ATOM     37  C   UNL     1     -12.891  12.994  71.910  0.00  0.00    -0.007 A 
ATOM     38  C   UNL     1     -13.971  13.799  72.237  0.00  0.00    -0.001 A 
ATOM     39  C   UNL     1     -14.080  15.005  71.582  0.00  0.00    -0.000 A 
ATOM     40  C   UNL     1     -13.117  15.337  70.640  0.00  0.00    -0.001 A 
BRANCH  36  41
ATOM     41  C   UNL     1     -11.793  11.972  69.912  0.00  0.00    +0.044 A 
ATOM     42  N   UNL     1     -11.593  10.790  70.546  0.00  0.00    -0.289 NA
ATOM     43  N   UNL     1     -11.713   9.780  69.688  0.00  0.00    -0.218 NA
ATOM     44  N   UNL     1     -12.037  10.291  68.517  0.00  0.00    -0.218 NA
ATOM     45  N   UNL     1     -12.122  11.589  68.654  0.00  0.00    -0.289 NA
ENDBRANCH  36  41
ENDBRANCH  32  35
ENDBRANCH  28  29
ENDBRANCH   2  28
TORSDOF 13
ENDMDL
MODEL 4
REMARK VINA RESULT:      -7.7      2.980      5.077
REMARK  Name = 
REMARK  13 active torsions:
REMARK  status: ('A' for Active; 'I' for Inactive)
REMARK    1  A    between atoms: C_2  and  O_3
REMARK    2  A    between atoms: O_3  and  C_4
REMARK    3  A    between atoms: C_10  and  C_11
REMARK    4  A    between atoms: C_11  and  O_13
REMARK    5  A    between atoms: O_13  and  C_14
REMARK    6  A    between atoms: C_14  and  O_16
REMARK    7  A    between atoms: O_16  and  C_17
REMARK    8  A    between atoms: C_17  and  O_19
REMARK    9  A    between atoms: O_19  and  C_20
REMARK   10  A    between atoms: N_27  and  C_28
REMARK   11  A    between atoms: C_28  and  C_29
REMARK   12  A    between atoms: C_32  and  C_33
REMARK   13  A    between atoms: C_38  and  C_39
REMARK                            x       y       z     vdW  Elec       q    Type
REMARK                         _______ _______ _______ _____ _____    ______ ____
ROOT
ATOM      1  C   UNL     1     -10.732  17.123  68.065  0.00  0.00    +0.301 A 
ATOM      2  N   UNL     1     -10.648  16.080  67.202  0.00  0.00    -0.277 N 
ATOM      3  C   UNL     1     -11.174  15.006  67.838  0.00  0.00    +0.088 A 
ATOM      4  C   UNL     1     -11.454  15.343  69.157  0.00  0.00    +0.102 A 
ATOM      5  C   UNL     1     -11.687  14.299  70.028  0.00  0.00    +0.021 A 
ATOM      6  C   UNL     1     -11.844  13.025  69.499  0.00  0.00    +0.002 A 
ATOM      7  C   UNL     1     -11.981  12.838  68.129  0.00  0.00    +0.008 A 
ATOM      8  C   UNL     1     -11.697  13.876  67.267  0.00  0.00    +0.093 A 
ATOM      9  N   UNL     1     -11.208  16.658  69.245  0.00  0.00    -0.194 NA
ENDROOT
BRANCH   8  10
ATOM     10  C   UNL     1     -11.903  13.816  65.811  0.00  0.00    +0.345 C 
ATOM     11  O   UNL     1     -13.059  14.207  65.437  0.00  0.00    -0.245 OA
BRANCH  10  12
ATOM     12  O   UNL     1     -11.727  12.526  65.314  0.00  0.00    -0.410 OA
BRANCH  12  13
ATOM     13  C   UNL     1     -10.259  12.167  64.930  0.00  0.00    +0.348 C 
ATOM     14  C   UNL     1     -10.667  11.557  63.437  0.00  0.00    +0.100 C 
BRANCH  13  15
ATOM     15  O   UNL     1     -10.273  10.754  65.605  0.00  0.00    -0.382 OA
BRANCH  15  16
ATOM     16  C   UNL     1      -9.222  10.639  66.518  0.00  0.00    +0.514 C 
ATOM     17  O   UNL     1      -8.063  10.759  66.026  0.00  0.00    -0.203 OA
BRANCH  16  18
ATOM     18  O   UNL     1      -9.310  10.644  67.886  0.00  0.00    -0.422 OA
BRANCH  18  19
ATOM     19  C   UNL     1      -9.363   9.459  68.689  0.00  0.00    +0.172 C 
ATOM     20  C   UNL     1     -10.754   9.332  69.227  0.00  0.00    +0.044 C 
ATOM     21  C   UNL     1     -10.832   9.696  70.684  0.00  0.00    +0.004 C 
ATOM     22  C   UNL     1      -9.888   8.860  71.501  0.00  0.00    +0.000 C 
ATOM     23  C   UNL     1      -8.482   8.976  71.017  0.00  0.00    +0.004 C 
ATOM     24  C   UNL     1      -8.296   9.637  69.712  0.00  0.00    +0.044 C 
ENDBRANCH  18  19
ENDBRANCH  16  18
ENDBRANCH  15  16
ENDBRANCH  13  15
ENDBRANCH  12  13
ENDBRANCH  10  12
ENDBRANCH   8  10
BRANCH   1  25
ATOM     25  O   UNL     1     -10.756  18.424  67.565  0.00  0.00    -0.448 OA
BRANCH  25  27
ATOM     26  C   UNL     1      -9.908  19.804  68.066  0.00  0.00    +0.051 C 
ATOM     27  C   UNL     1      -9.741  19.366  67.878  0.00  0.00    +0.209 C 
ENDBRANCH  25  27
ENDBRANCH   1  25
BRANCH   2  28
ATOM     28  C   UNL     1      -9.677  15.905  66.125  0.00  0.00    +0.137 C 
BRANCH  28  29
ATOM     29  C   UNL     1      -8.400  15.384  66.717  0.00  0.00    +0.001 A 
ATOM     30  C   UNL     1      -7.360  16.221  67.095  0.00  0.00    -0.002 A 
ATOM     31  C   UNL     1      -6.333  15.718  67.887  0.00  0.00    -0.000 A 
ATOM     32  C   UNL     1      -6.733  14.840  68.892  0.00  0.00    -0.001 A 
ATOM     33  C   UNL     1      -7.629  13.889  68.409  0.00  0.00    -0.000 A 
ATOM     34  C   UNL     1      -8.316  14.086  67.214  0.00  0.00    -0.002 A 
BRANCH  32  35
ATOM     35  C   UNL     1      -5.782  14.324  69.887  0.00  0.00    -0.006 A 
ATOM     36  C   UNL     1      -5.278  15.195  70.846  0.00  0.00    -0.015 A 
ATOM     37  C   UNL     1      -4.941  14.713  72.107  0.00  0.00    -0.007 A 
ATOM     38  C   UNL     1      -4.514  13.400  72.222  0.00  0.00    -0.001 A 
ATOM     39  C   UNL     1      -4.942  12.511  71.260  0.00  0.00    -0.000 A 
ATOM     40  C   UNL     1      -5.760  12.979  70.242  0.00  0.00    -0.001 A 
BRANCH  36  41
ATOM     41  C   UNL     1      -4.986  16.579  70.447  0.00  0.00    +0.044 A 
ATOM     42  N   UNL     1      -5.301  17.610  71.270  0.00  0.00    -0.289 NA
ATOM     43  N   UNL     1      -4.475  18.634  71.063  0.00  0.00    -0.218 NA
ATOM     44  N   UNL     1      -3.599  18.260  70.152  0.00  0.00    -0.218 NA
ATOM     45  N   UNL     1      -3.876  17.028  69.810  0.00  0.00    -0.289 NA
ENDBRANCH  36  41
ENDBRANCH  32  35
ENDBRANCH  28  29
ENDBRANCH   2  28
TORSDOF 13
ENDMDL
MODEL 5
REMARK VINA RESULT:      -7.6      3.986      8.654
REMARK  Name = 
REMARK  13 active torsions:
REMARK  status: ('A' for Active; 'I' for Inactive)
REMARK    1  A    between atoms: C_2  and  O_3
REMARK    2  A    between atoms: O_3  and  C_4
REMARK    3  A    between atoms: C_10  and  C_11
REMARK    4  A    between atoms: C_11  and  O_13
REMARK    5  A    between atoms: O_13  and  C_14
REMARK    6  A    between atoms: C_14  and  O_16
REMARK    7  A    between atoms: O_16  and  C_17
REMARK    8  A    between atoms: C_17  and  O_19
REMARK    9  A    between atoms: O_19  and  C_20
REMARK   10  A    between atoms: N_27  and  C_28
REMARK   11  A    between atoms: C_28  and  C_29
REMARK   12  A    between atoms: C_32  and  C_33
REMARK   13  A    between atoms: C_38  and  C_39
REMARK                            x       y       z     vdW  Elec       q    Type
REMARK                         _______ _______ _______ _____ _____    ______ ____
ROOT
ATOM      1  C   UNL     1      -9.557  10.353  65.341  0.00  0.00    +0.301 A 
ATOM      2  N   UNL     1      -9.844  11.256  66.312  0.00  0.00    -0.277 N 
ATOM      3  C   UNL     1      -8.706  11.434  67.025  0.00  0.00    +0.088 A 
ATOM      4  C   UNL     1      -7.744  10.531  66.590  0.00  0.00    +0.102 A 
ATOM      5  C   UNL     1      -6.648  10.350  67.409  0.00  0.00    +0.021 A 
ATOM      6  C   UNL     1      -6.473  11.222  68.474  0.00  0.00    +0.002 A 
ATOM      7  C   UNL     1      -7.249  12.370  68.585  0.00  0.00    +0.008 A 
ATOM      8  C   UNL     1      -8.369  12.515  67.795  0.00  0.00    +0.093 A 
ATOM      9  N   UNL     1      -8.289   9.916  65.531  0.00  0.00    -0.194 NA
ENDROOT
BRANCH   8  10
ATOM     10  C   UNL     1      -9.201  13.729  67.763  0.00  0.00    +0.345 C 
ATOM     11  O   UNL     1      -9.177  14.341  66.643  0.00  0.00    -0.245 OA
BRANCH  10  12
ATOM     12  O   UNL     1      -8.819  14.647  68.738  0.00  0.00    -0.410 OA
BRANCH  12  13
ATOM     13  C   UNL     1      -8.441  16.060  68.196  0.00  0.00    +0.348 C 
ATOM     14  C   UNL     1      -6.990  16.119  69.007  0.00  0.00    +0.100 C 
BRANCH  13  15
ATOM     15  O   UNL     1      -9.195  16.853  69.315  0.00  0.00    -0.382 OA
BRANCH  15  16
ATOM     16  C   UNL     1     -10.562  16.918  69.031  0.00  0.00    +0.514 C 
ATOM     17  O   UNL     1     -10.852  17.225  67.839  0.00  0.00    -0.203 OA
BRANCH  16  18
ATOM     18  O   UNL     1     -11.591  16.468  69.816  0.00  0.00    -0.422 OA
BRANCH  18  19
ATOM     19  C   UNL     1     -11.429  15.537  70.893  0.00  0.00    +0.172 C 
ATOM     20  C   UNL     1     -12.168  14.287  70.532  0.00  0.00    +0.044 C 
ATOM     21  C   UNL     1     -13.455  14.151  71.299  0.00  0.00    +0.004 C 
ATOM     22  C   UNL     1     -13.207  14.191  72.781  0.00  0.00    +0.000 C 
ATOM     23  C   UNL     1     -12.494  15.434  73.192  0.00  0.00    +0.004 C 
ATOM     24  C   UNL     1     -11.928  16.249  72.100  0.00  0.00    +0.044 C 
ENDBRANCH  18  19
ENDBRANCH  16  18
ENDBRANCH  15  16
ENDBRANCH  13  15
ENDBRANCH  12  13
ENDBRANCH  10  12
ENDBRANCH   8  10
BRANCH   1  25
ATOM     25  O   UNL     1     -10.320  10.339  64.174  0.00  0.00    -0.448 OA
BRANCH  25  27
ATOM     26  C   UNL     1      -9.964  11.522  63.012  0.00  0.00    +0.051 C 
ATOM     27  C   UNL     1     -10.374  11.457  63.300  0.00  0.00    +0.209 C 
ENDBRANCH  25  27
ENDBRANCH   1  25
BRANCH   2  28
ATOM     28  C   UNL     1     -11.149  11.514  66.916  0.00  0.00    +0.137 C 
BRANCH  28  29
ATOM     29  C   UNL     1     -11.345  10.553  68.051  0.00  0.00    +0.001 A 
ATOM     30  C   UNL     1     -10.715   9.317  68.095  0.00  0.00    -0.002 A 
ATOM     31  C   UNL     1     -10.708   8.596  69.285  0.00  0.00    -0.000 A 
ATOM     32  C   UNL     1     -10.524   9.357  70.438  0.00  0.00    -0.001 A 
ATOM     33  C   UNL     1     -11.335  10.489  70.435  0.00  0.00    -0.000 A 
ATOM     34  C   UNL     1     -11.901  10.969  69.257  0.00  0.00    -0.002 A 
BRANCH  32  35
ATOM     35  C   UNL     1     -10.370   8.727  71.758  0.00  0.00    -0.006 A 
ATOM     36  C   UNL     1     -11.349   7.843  72.196  0.00  0.00    -0.015 A 
ATOM     37  C   UNL     1     -11.000   6.788  73.033  0.00  0.00    -0.007 A 
ATOM     38  C   UNL     1      -9.928   6.952  73.895  0.00  0.00    -0.001 A 
ATOM     39  C   UNL     1      -8.960   7.862  73.531  0.00  0.00    -0.000 A 
ATOM     40  C   UNL     1      -9.117   8.556  72.340  0.00  0.00    -0.001 A 
BRANCH  36  41
ATOM     41  C   UNL     1     -12.751   8.136  71.868  0.00  0.00    +0.044 A 
ATOM     42  N   UNL     1     -13.564   7.157  71.399  0.00  0.00    -0.289 NA
ATOM     43  N   UNL     1     -14.829   7.410  71.728  0.00  0.00    -0.218 NA
ATOM     44  N   UNL     1     -14.838   8.516  72.446  0.00  0.00    -0.218 NA
ATOM     45  N   UNL     1     -13.603   8.930  72.563  0.00  0.00    -0.289 NA
ENDBRANCH  36  41
ENDBRANCH  32  35
ENDBRANCH  28  29
ENDBRANCH   2  28
TORSDOF 13
ENDMDL
MODEL 6
REMARK VINA RESULT:      -7.6      3.730      8.245
REMARK  Name = 
REMARK  13 active torsions:
REMARK  status: ('A' for Active; 'I' for Inactive)
REMARK    1  A    between atoms: C_2  and  O_3
REMARK    2  A    between atoms: O_3  and  C_4
REMARK    3  A    between atoms: C_10  and  C_11
REMARK    4  A    between atoms: C_11  and  O_13
REMARK    5  A    between atoms: O_13  and  C_14
REMARK    6  A    between atoms: C_14  and  O_16
REMARK    7  A    between atoms: O_16  and  C_17
REMARK    8  A    between atoms: C_17  and  O_19
REMARK    9  A    between atoms: O_19  and  C_20
REMARK   10  A    between atoms: N_27  and  C_28
REMARK   11  A    between atoms: C_28  and  C_29
REMARK   12  A    between atoms: C_32  and  C_33
REMARK   13  A    between atoms: C_38  and  C_39
REMARK                            x       y       z     vdW  Elec       q    Type
REMARK                         _______ _______ _______ _____ _____    ______ ____
ROOT
ATOM      1  C   UNL     1     -12.058  11.173  70.627  0.00  0.00    +0.301 A 
ATOM      2  N   UNL     1     -11.837  12.169  69.734  0.00  0.00    -0.277 N 
ATOM      3  C   UNL     1     -12.344  13.300  70.279  0.00  0.00    +0.088 A 
ATOM      4  C   UNL     1     -13.016  12.984  71.454  0.00  0.00    +0.102 A 
ATOM      5  C   UNL     1     -13.860  13.949  71.965  0.00  0.00    +0.021 A 
ATOM      6  C   UNL     1     -13.815  15.221  71.411  0.00  0.00    +0.002 A 
ATOM      7  C   UNL     1     -12.804  15.573  70.525  0.00  0.00    +0.008 A 
ATOM      8  C   UNL     1     -12.000  14.592  69.983  0.00  0.00    +0.093 A 
ATOM      9  N   UNL     1     -12.782  11.679  71.654  0.00  0.00    -0.194 NA
ENDROOT
BRANCH   8  10
ATOM     10  C   UNL     1     -10.842  14.865  69.115  0.00  0.00    +0.345 C 
ATOM     11  O   UNL     1      -9.746  15.014  69.750  0.00  0.00    -0.245 OA
BRANCH  10  12
ATOM     12  O   UNL     1     -11.028  16.010  68.345  0.00  0.00    -0.410 OA
BRANCH  12  13
ATOM     13  C   UNL     1      -9.751  16.517  67.607  0.00  0.00    +0.348 C 
ATOM     14  C   UNL     1      -9.637  17.914  68.503  0.00  0.00    +0.100 C 
BRANCH  13  15
ATOM     15  O   UNL     1     -10.525  17.226  66.445  0.00  0.00    -0.382 OA
BRANCH  15  16
ATOM     16  C   UNL     1     -10.630  16.377  65.340  0.00  0.00    +0.514 C 
ATOM     17  O   UNL     1     -11.170  16.887  64.316  0.00  0.00    -0.203 OA
BRANCH  16  18
ATOM     18  O   UNL     1     -10.017  15.163  65.169  0.00  0.00    -0.422 OA
BRANCH  18  19
ATOM     19  C   UNL     1     -10.627  13.906  65.491  0.00  0.00    +0.172 C 
ATOM     20  C   UNL     1     -10.057  12.872  64.572  0.00  0.00    +0.044 C 
ATOM     21  C   UNL     1     -11.030  12.476  63.495  0.00  0.00    +0.004 C 
ATOM     22  C   UNL     1     -12.319  11.982  64.087  0.00  0.00    +0.000 C 
ATOM     23  C   UNL     1     -12.939  12.992  64.992  0.00  0.00    +0.004 C 
ATOM     24  C   UNL     1     -12.091  14.142  65.360  0.00  0.00    +0.044 C 
ENDBRANCH  18  19
ENDBRANCH  16  18
ENDBRANCH  15  16
ENDBRANCH  13  15
ENDBRANCH  12  13
ENDBRANCH  10  12
ENDBRANCH   8  10
BRANCH   1  25
ATOM     25  O   UNL     1     -11.240  10.044  70.608  0.00  0.00    -0.448 OA
BRANCH  25  27
ATOM     26  C   UNL     1     -11.465   8.555  71.388  0.00  0.00    +0.051 C 
ATOM     27  C   UNL     1     -11.717   8.767  71.006  0.00  0.00    +0.209 C 
ENDBRANCH  25  27
ENDBRANCH   1  25
BRANCH   2  28
ATOM     28  C   UNL     1     -11.701  12.038  68.285  0.00  0.00    +0.137 C 
BRANCH  28  29
ATOM     29  C   UNL     1     -10.562  11.103  67.999  0.00  0.00    +0.001 A 
ATOM     30  C   UNL     1     -10.714   9.964  67.219  0.00  0.00    -0.002 A 
ATOM     31  C   UNL     1      -9.583   9.297  66.758  0.00  0.00    -0.000 A 
ATOM     32  C   UNL     1      -8.536  10.120  66.345  0.00  0.00    -0.001 A 
ATOM     33  C   UNL     1      -8.291  11.133  67.269  0.00  0.00    -0.000 A 
ATOM     34  C   UNL     1      -9.243  11.487  68.221  0.00  0.00    -0.002 A 
BRANCH  32  35
ATOM     35  C   UNL     1      -7.326   9.567  65.719  0.00  0.00    -0.006 A 
ATOM     36  C   UNL     1      -7.013   9.948  64.419  0.00  0.00    -0.015 A 
ATOM     37  C   UNL     1      -5.681  10.015  64.022  0.00  0.00    -0.007 A 
ATOM     38  C   UNL     1      -4.767   9.165  64.623  0.00  0.00    -0.001 A 
ATOM     39  C   UNL     1      -5.063   8.715  65.891  0.00  0.00    -0.000 A 
ATOM     40  C   UNL     1      -6.248   9.130  66.482  0.00  0.00    -0.001 A 
BRANCH  36  41
ATOM     41  C   UNL     1      -8.113  10.133  63.461  0.00  0.00    +0.044 A 
ATOM     42  N   UNL     1      -7.945  10.919  62.369  0.00  0.00    -0.289 NA
ATOM     43  N   UNL     1      -8.735  10.509  61.380  0.00  0.00    -0.218 NA
ATOM     44  N   UNL     1      -9.376   9.438  61.802  0.00  0.00    -0.218 NA
ATOM     45  N   UNL     1      -8.983   9.190  63.025  0.00  0.00    -0.289 NA
ENDBRANCH  36  41
ENDBRANCH  32  35
ENDBRANCH  28  29
ENDBRANCH   2  28
TORSDOF 13
ENDMDL
MODEL 7
REMARK VINA RESULT:      -7.6      3.608      7.096
REMARK  Name = 
REMARK  13 active torsions:
REMARK  status: ('A' for Active; 'I' for Inactive)
REMARK    1  A    between atoms: C_2  and  O_3
REMARK    2  A    between atoms: O_3  and  C_4
REMARK    3  A    between atoms: C_10  and  C_11
REMARK    4  A    between atoms: C_11  and  O_13
REMARK    5  A    between atoms: O_13  and  C_14
REMARK    6  A    between atoms: C_14  and  O_16
REMARK    7  A    between atoms: O_16  and  C_17
REMARK    8  A    between atoms: C_17  and  O_19
REMARK    9  A    between atoms: O_19  and  C_20
REMARK   10  A    between atoms: N_27  and  C_28
REMARK   11  A    between atoms: C_28  and  C_29
REMARK   12  A    between atoms: C_32  and  C_33
REMARK   13  A    between atoms: C_38  and  C_39
REMARK                            x       y       z     vdW  Elec       q    Type
REMARK                         _______ _______ _______ _____ _____    ______ ____
ROOT
ATOM      1  C   UNL     1      -8.433   6.729  67.024  0.00  0.00    +0.301 A 
ATOM      2  N   UNL     1      -9.407   7.299  67.777  0.00  0.00    -0.277 N 
ATOM      3  C   UNL     1      -9.611   6.478  68.835  0.00  0.00    +0.088 A 
ATOM      4  C   UNL     1      -8.866   5.317  68.668  0.00  0.00    +0.102 A 
ATOM      5  C   UNL     1      -9.197   4.247  69.474  0.00  0.00    +0.021 A 
ATOM      6  C   UNL     1     -10.078   4.464  70.524  0.00  0.00    +0.002 A 
ATOM      7  C   UNL     1     -10.443   5.754  70.888  0.00  0.00    +0.008 A 
ATOM      8  C   UNL     1     -10.150   6.808  70.050  0.00  0.00    +0.093 A 
ATOM      9  N   UNL     1      -8.128   5.526  67.569  0.00  0.00    -0.194 NA
ENDROOT
BRANCH   8  10
ATOM     10  C   UNL     1     -10.403   8.219  70.384  0.00  0.00    +0.345 C 
ATOM     11  O   UNL     1      -9.796   8.618  71.433  0.00  0.00    -0.245 OA
BRANCH  10  12
ATOM     12  O   UNL     1     -11.759   8.473  70.575  0.00  0.00    -0.410 OA
BRANCH  12  13
ATOM     13  C   UNL     1     -12.076   9.590  71.617  0.00  0.00    +0.348 C 
ATOM     14  C   UNL     1     -13.279   8.720  72.368  0.00  0.00    +0.100 C 
BRANCH  13  15
ATOM     15  O   UNL     1     -13.087  10.361  70.704  0.00  0.00    -0.382 OA
BRANCH  15  16
ATOM     16  C   UNL     1     -12.416  11.306  69.923  0.00  0.00    +0.514 C 
ATOM     17  O   UNL     1     -12.441  11.093  68.677  0.00  0.00    -0.203 OA
BRANCH  16  18
ATOM     18  O   UNL     1     -11.948  12.529  70.326  0.00  0.00    -0.422 OA
BRANCH  18  19
ATOM     19  C   UNL     1     -12.790  13.651  70.620  0.00  0.00    +0.172 C 
ATOM     20  C   UNL     1     -12.028  14.895  70.286  0.00  0.00    +0.044 C 
ATOM     21  C   UNL     1     -11.536  15.604  71.518  0.00  0.00    +0.004 C 
ATOM     22  C   UNL     1     -12.675  15.933  72.442  0.00  0.00    +0.000 C 
ATOM     23  C   UNL     1     -13.449  14.717  72.825  0.00  0.00    +0.004 C 
ATOM     24  C   UNL     1     -13.159  13.493  72.053  0.00  0.00    +0.044 C 
ENDBRANCH  18  19
ENDBRANCH  16  18
ENDBRANCH  15  16
ENDBRANCH  13  15
ENDBRANCH  12  13
ENDBRANCH  10  12
ENDBRANCH   8  10
BRANCH   1  25
ATOM     25  O   UNL     1      -7.660   7.530  66.186  0.00  0.00    -0.448 OA
BRANCH  25  27
ATOM     26  C   UNL     1      -7.632   7.772  64.508  0.00  0.00    +0.051 C 
ATOM     27  C   UNL     1      -7.644   7.346  64.778  0.00  0.00    +0.209 C 
ENDBRANCH  25  27
ENDBRANCH   1  25
BRANCH   2  28
ATOM     28  C   UNL     1     -10.464   8.196  67.316  0.00  0.00    +0.137 C 
BRANCH  28  29
ATOM     29  C   UNL     1      -9.836   9.493  66.896  0.00  0.00    +0.001 A 
ATOM     30  C   UNL     1     -10.138  10.108  65.689  0.00  0.00    -0.002 A 
ATOM     31  C   UNL     1      -9.749  11.428  65.481  0.00  0.00    -0.000 A 
ATOM     32  C   UNL     1      -9.886  12.269  66.584  0.00  0.00    -0.001 A 
ATOM     33  C   UNL     1      -9.380  11.677  67.739  0.00  0.00    -0.000 A 
ATOM     34  C   UNL     1      -9.176  10.303  67.816  0.00  0.00    -0.002 A 
BRANCH  32  35
ATOM     35  C   UNL     1      -9.636  13.714  66.485  0.00  0.00    -0.006 A 
ATOM     36  C   UNL     1     -10.720  14.572  66.341  0.00  0.00    -0.015 A 
ATOM     37  C   UNL     1     -10.655  15.858  66.868  0.00  0.00    -0.007 A 
ATOM     38  C   UNL     1      -9.419  16.479  66.950  0.00  0.00    -0.001 A 
ATOM     39  C   UNL     1      -8.310  15.668  67.036  0.00  0.00    -0.000 A 
ATOM     40  C   UNL     1      -8.493  14.292  67.029  0.00  0.00    -0.001 A 
BRANCH  36  41
ATOM     41  C   UNL     1     -11.852  14.135  65.512  0.00  0.00    +0.044 A 
ATOM     42  N   UNL     1     -11.730  14.079  64.162  0.00  0.00    -0.289 NA
ATOM     43  N   UNL     1     -12.544  13.152  63.664  0.00  0.00    -0.218 NA
ATOM     44  N   UNL     1     -13.155  12.572  64.678  0.00  0.00    -0.218 NA
ATOM     45  N   UNL     1     -12.720  13.128  65.780  0.00  0.00    -0.289 NA
ENDBRANCH  36  41
ENDBRANCH  32  35
ENDBRANCH  28  29
ENDBRANCH   2  28
TORSDOF 13
ENDMDL
MODEL 8
REMARK VINA RESULT:      -7.6      3.980      7.617
REMARK  Name = 
REMARK  13 active torsions:
REMARK  status: ('A' for Active; 'I' for Inactive)
REMARK    1  A    between atoms: C_2  and  O_3
REMARK    2  A    between atoms: O_3  and  C_4
REMARK    3  A    between atoms: C_10  and  C_11
REMARK    4  A    between atoms: C_11  and  O_13
REMARK    5  A    between atoms: O_13  and  C_14
REMARK    6  A    between atoms: C_14  and  O_16
REMARK    7  A    between atoms: O_16  and  C_17
REMARK    8  A    between atoms: C_17  and  O_19
REMARK    9  A    between atoms: O_19  and  C_20
REMARK   10  A    between atoms: N_27  and  C_28
REMARK   11  A    between atoms: C_28  and  C_29
REMARK   12  A    between atoms: C_32  and  C_33
REMARK   13  A    between atoms: C_38  and  C_39
REMARK                            x       y       z     vdW  Elec       q    Type
REMARK                         _______ _______ _______ _____ _____    ______ ____
ROOT
ATOM      1  C   UNL     1     -11.392  14.793  68.492  0.00  0.00    +0.301 A 
ATOM      2  N   UNL     1     -11.235  13.685  69.259  0.00  0.00    -0.277 N 
ATOM      3  C   UNL     1     -12.128  13.784  70.272  0.00  0.00    +0.088 A 
ATOM      4  C   UNL     1     -12.746  15.027  70.222  0.00  0.00    +0.102 A 
ATOM      5  C   UNL     1     -13.437  15.422  71.349  0.00  0.00    +0.021 A 
ATOM      6  C   UNL     1     -13.653  14.484  72.349  0.00  0.00    +0.002 A 
ATOM      7  C   UNL     1     -13.378  13.140  72.132  0.00  0.00    +0.008 A 
ATOM      8  C   UNL     1     -12.644  12.764  71.027  0.00  0.00    +0.093 A 
ATOM      9  N   UNL     1     -12.299  15.599  69.095  0.00  0.00    -0.194 NA
ENDROOT
BRANCH   8  10
ATOM     10  C   UNL     1     -12.381  11.365  70.651  0.00  0.00    +0.345 C 
ATOM     11  O   UNL     1     -13.187  10.907  69.774  0.00  0.00    -0.245 OA
BRANCH  10  12
ATOM     12  O   UNL     1     -12.444  10.511  71.750  0.00  0.00    -0.410 OA
BRANCH  12  13
ATOM     13  C   UNL     1     -12.664   9.007  71.398  0.00  0.00    +0.348 C 
ATOM     14  C   UNL     1     -13.921   8.812  72.470  0.00  0.00    +0.100 C 
BRANCH  13  15
ATOM     15  O   UNL     1     -11.603   8.463  72.413  0.00  0.00    -0.382 OA
BRANCH  15  16
ATOM     16  C   UNL     1     -10.314   8.600  71.892  0.00  0.00    +0.514 C 
ATOM     17  O   UNL     1      -9.374   8.380  72.709  0.00  0.00    -0.203 OA
BRANCH  16  18
ATOM     18  O   UNL     1      -9.964   8.712  70.571  0.00  0.00    -0.422 OA
BRANCH  18  19
ATOM     19  C   UNL     1      -9.767   7.593  69.698  0.00  0.00    +0.172 C 
ATOM     20  C   UNL     1      -8.295   7.436  69.481  0.00  0.00    +0.044 C 
ATOM     21  C   UNL     1      -7.871   7.911  68.117  0.00  0.00    +0.004 C 
ATOM     22  C   UNL     1      -8.628   7.192  67.036  0.00  0.00    +0.000 C 
ATOM     23  C   UNL     1     -10.103   7.343  67.197  0.00  0.00    +0.004 C 
ATOM     24  C   UNL     1     -10.563   7.908  68.480  0.00  0.00    +0.044 C 
ENDBRANCH  18  19
ENDBRANCH  16  18
ENDBRANCH  15  16
ENDBRANCH  13  15
ENDBRANCH  12  13
ENDBRANCH  10  12
ENDBRANCH   8  10
BRANCH   1  25
ATOM     25  O   UNL     1     -11.010  14.756  67.152  0.00  0.00    -0.448 OA
BRANCH  25  27
ATOM     26  C   UNL     1      -9.502  15.101  66.458  0.00  0.00    +0.051 C 
ATOM     27  C   UNL     1      -9.834  15.403  66.690  0.00  0.00    +0.209 C 
ENDBRANCH  25  27
ENDBRANCH   1  25
BRANCH   2  28
ATOM     28  C   UNL     1     -10.021  12.886  69.412  0.00  0.00    +0.137 C 
BRANCH  28  29
ATOM     29  C   UNL     1     -10.001  11.843  68.333  0.00  0.00    +0.001 A 
ATOM     30  C   UNL     1     -11.120  11.545  67.566  0.00  0.00    -0.002 A 
ATOM     31  C   UNL     1     -10.971  10.785  66.410  0.00  0.00    -0.000 A 
ATOM     32  C   UNL     1      -9.837  11.071  65.653  0.00  0.00    -0.001 A 
ATOM     33  C   UNL     1      -8.700  11.159  66.454  0.00  0.00    -0.000 A 
ATOM     34  C   UNL     1      -8.800  11.353  67.829  0.00  0.00    -0.002 A 
BRANCH  32  35
ATOM     35  C   UNL     1      -9.607  10.441  64.345  0.00  0.00    -0.006 A 
ATOM     36  C   UNL     1      -9.884  11.169  63.194  0.00  0.00    -0.015 A 
ATOM     37  C   UNL     1      -9.141  10.943  62.039  0.00  0.00    -0.007 A 
ATOM     38  C   UNL     1      -8.618   9.678  61.824  0.00  0.00    -0.001 A 
ATOM     39  C   UNL     1      -8.381   8.897  62.934  0.00  0.00    -0.000 A 
ATOM     40  C   UNL     1      -8.681   9.414  64.185  0.00  0.00    -0.001 A 
BRANCH  36  41
ATOM     41  C   UNL     1     -11.053  12.060  63.196  0.00  0.00    +0.044 A 
ATOM     42  N   UNL     1     -12.307  11.544  63.226  0.00  0.00    -0.289 NA
ATOM     43  N   UNL     1     -13.144  12.399  63.810  0.00  0.00    -0.218 NA
ATOM     44  N   UNL     1     -12.436  13.440  64.203  0.00  0.00    -0.218 NA
ATOM     45  N   UNL     1     -11.189  13.227  63.872  0.00  0.00    -0.289 NA
ENDBRANCH  36  41
ENDBRANCH  32  35
ENDBRANCH  28  29
ENDBRANCH   2  28
TORSDOF 13
ENDMDL
MODEL 9
REMARK VINA RESULT:      -7.5      2.633      4.197
REMARK  Name = 
REMARK  13 active torsions:
REMARK  status: ('A' for Active; 'I' for Inactive)
REMARK    1  A    between atoms: C_2  and  O_3
REMARK    2  A    between atoms: O_3  and  C_4
REMARK    3  A    between atoms: C_10  and  C_11
REMARK    4  A    between atoms: C_11  and  O_13
REMARK    5  A    between atoms: O_13  and  C_14
REMARK    6  A    between atoms: C_14  and  O_16
REMARK    7  A    between atoms: O_16  and  C_17
REMARK    8  A    between atoms: C_17  and  O_19
REMARK    9  A    between atoms: O_19  and  C_20
REMARK   10  A    between atoms: N_27  and  C_28
REMARK   11  A    between atoms: C_28  and  C_29
REMARK   12  A    between atoms: C_32  and  C_33
REMARK   13  A    between atoms: C_38  and  C_39
REMARK                            x       y       z     vdW  Elec       q    Type
REMARK                         _______ _______ _______ _____ _____    ______ ____
ROOT
ATOM      1  C   UNL     1     -10.514  17.336  67.240  0.00  0.00    +0.301 A 
ATOM      2  N   UNL     1     -10.263  16.056  66.868  0.00  0.00    -0.277 N 
ATOM      3  C   UNL     1     -10.954  15.261  67.720  0.00  0.00    +0.088 A 
ATOM      4  C   UNL     1     -11.523  16.042  68.719  0.00  0.00    +0.102 A 
ATOM      5  C   UNL     1     -11.983  15.378  69.838  0.00  0.00    +0.021 A 
ATOM      6  C   UNL     1     -12.051  13.992  69.798  0.00  0.00    +0.002 A 
ATOM      7  C   UNL     1     -11.871  13.308  68.602  0.00  0.00    +0.008 A 
ATOM      8  C   UNL     1     -11.363  13.972  67.506  0.00  0.00    +0.093 A 
ATOM      9  N   UNL     1     -11.266  17.309  68.367  0.00  0.00    -0.194 NA
ENDROOT
BRANCH   8  10
ATOM     10  C   UNL     1     -11.227  13.369  66.170  0.00  0.00    +0.345 C 
ATOM     11  O   UNL     1     -12.109  13.760  65.335  0.00  0.00    -0.245 OA
BRANCH  10  12
ATOM     12  O   UNL     1     -11.298  11.979  66.217  0.00  0.00    -0.410 OA
BRANCH  12  13
ATOM     13  C   UNL     1      -9.918  11.254  66.279  0.00  0.00    +0.348 C 
ATOM     14  C   UNL     1     -10.107  10.501  64.808  0.00  0.00    +0.100 C 
BRANCH  13  15
ATOM     15  O   UNL     1     -10.440  10.012  67.077  0.00  0.00    -0.382 OA
BRANCH  15  16
ATOM     16  C   UNL     1      -9.925  10.015  68.376  0.00  0.00    +0.514 C 
ATOM     17  O   UNL     1      -9.200  11.010  68.667  0.00  0.00    -0.203 OA
BRANCH  16  18
ATOM     18  O   UNL     1     -10.298   9.203  69.415  0.00  0.00    -0.422 OA
BRANCH  18  19
ATOM     19  C   UNL     1     -10.763   9.687  70.682  0.00  0.00    +0.172 C 
ATOM     20  C   UNL     1     -10.701   8.552  71.655  0.00  0.00    +0.044 C 
ATOM     21  C   UNL     1     -12.064   7.992  71.956  0.00  0.00    +0.004 C 
ATOM     22  C   UNL     1     -12.986   9.061  72.472  0.00  0.00    +0.000 C 
ATOM     23  C   UNL     1     -13.099  10.204  71.521  0.00  0.00    +0.004 C 
ATOM     24  C   UNL     1     -12.124  10.227  70.414  0.00  0.00    +0.044 C 
ENDBRANCH  18  19
ENDBRANCH  16  18
ENDBRANCH  15  16
ENDBRANCH  13  15
ENDBRANCH  12  13
ENDBRANCH  10  12
ENDBRANCH   8  10
BRANCH   1  25
ATOM     25  O   UNL     1     -10.383  18.358  66.302  0.00  0.00    -0.448 OA
BRANCH  25  27
ATOM     26  C   UNL     1      -9.424  19.743  66.497  0.00  0.00    +0.051 C 
ATOM     27  C   UNL     1      -9.892  19.643  66.657  0.00  0.00    +0.209 C 
ENDBRANCH  25  27
ENDBRANCH   1  25
BRANCH   2  28
ATOM     28  C   UNL     1      -9.074  15.555  66.183  0.00  0.00    +0.137 C 
BRANCH  28  29
ATOM     29  C   UNL     1      -7.861  16.089  66.888  0.00  0.00    +0.001 A 
ATOM     30  C   UNL     1      -7.017  17.026  66.308  0.00  0.00    -0.002 A 
ATOM     31  C   UNL     1      -6.084  17.686  67.102  0.00  0.00    -0.000 A 
ATOM     32  C   UNL     1      -6.534  18.050  68.369  0.00  0.00    -0.001 A 
ATOM     33  C   UNL     1      -7.203  16.999  68.992  0.00  0.00    -0.000 A 
ATOM     34  C   UNL     1      -7.696  15.923  68.260  0.00  0.00    -0.002 A 
BRANCH  32  35
ATOM     35  C   UNL     1      -5.708  18.862  69.275  0.00  0.00    -0.006 A 
ATOM     36  C   UNL     1      -4.515  18.328  69.751  0.00  0.00    -0.015 A 
ATOM     37  C   UNL     1      -3.446  19.173  70.031  0.00  0.00    -0.007 A 
ATOM     38  C   UNL     1      -3.714  20.470  70.438  0.00  0.00    -0.001 A 
ATOM     39  C   UNL     1      -4.912  21.021  70.038  0.00  0.00    -0.000 A 
ATOM     40  C   UNL     1      -5.771  20.252  69.267  0.00  0.00    -0.001 A 
BRANCH  36  41
ATOM     41  C   UNL     1      -4.472  16.895  70.075  0.00  0.00    +0.044 A 
ATOM     42  N   UNL     1      -3.578  16.081  69.460  0.00  0.00    -0.289 NA
ATOM     43  N   UNL     1      -3.270  15.054  70.249  0.00  0.00    -0.218 NA
ATOM     44  N   UNL     1      -3.916  15.221  71.386  0.00  0.00    -0.218 NA
ATOM     45  N   UNL     1      -4.602  16.331  71.301  0.00  0.00    -0.289 NA
ENDBRANCH  36  41
ENDBRANCH  32  35
ENDBRANCH  28  29
ENDBRANCH   2  28
TORSDOF 13
ENDMDL
