MODEL 1
REMARK VINA RESULT:      -7.3      0.000      0.000
REMARK  Name = 
REMARK  11 active torsions:
REMARK  status: ('A' for Active; 'I' for Inactive)
REMARK    1  A    between atoms: O_2  and  C_3
REMARK    2  A    between atoms: C_3  and  C_5
REMARK    3  A    between atoms: C_5  and  C_6
REMARK    4  A    between atoms: C_6  and  C_8
REMARK    5  A    between atoms: C_6  and  C_15
REMARK    6  A    between atoms: C_8  and  C_9
REMARK    7  A    between atoms: C_9  and  C_10
REMARK    8  A    between atoms: C_10  and  C_11
REMARK    9  A    between atoms: C_15  and  O_17
REMARK   10  A    between atoms: O_17  and  C_18
REMARK   11  A    between atoms: C_19  and  O_20
REMARK                            x       y       z     vdW  Elec       q    Type
REMARK                         _______ _______ _______ _____ _____    ______ ____
ROOT
ATOM      1  C   UNL     1      -7.447  14.631  67.852  0.00  0.00    +0.230 C 
ATOM      2  C   UNL     1      -7.155  15.577  69.293  0.00  0.00    +0.087 C 
ATOM      3  C   UNL     1      -5.589  15.642  68.853  0.00  0.00    +0.074 C 
ATOM      4  N   UNL     1      -4.804  16.228  69.834  0.00  0.00    -0.271 NA
ATOM      5  C   UNL     1      -5.266  17.419  70.473  0.00  0.00    +0.077 C 
ATOM      6  C   UNL     1      -5.529  18.434  69.368  0.00  0.00    +0.043 C 
ATOM      7  C   UNL     1      -6.916  18.163  68.908  0.00  0.00    -0.021 A 
ATOM      8  C   UNL     1      -7.501  19.324  68.415  0.00  0.00    +0.036 A 
ATOM      9  C   UNL     1      -8.783  19.291  67.890  0.00  0.00    +0.176 A 
ATOM     10  O   UNL     1      -9.517  20.165  67.090  0.00  0.00    -0.435 OA
ATOM     11  C   UNL     1     -10.831  19.680  67.037  0.00  0.00    +0.429 C 
ATOM     12  O   UNL     1     -10.830  18.513  67.821  0.00  0.00    -0.435 OA
ATOM     13  C   UNL     1      -9.540  18.185  68.220  0.00  0.00    +0.176 A 
ATOM     14  C   UNL     1      -8.941  17.066  68.772  0.00  0.00    +0.036 A 
ATOM     15  C   UNL     1      -3.625  16.625  69.067  0.00  0.00    +0.072 C 
ATOM     16  C   UNL     1      -4.077  16.919  67.666  0.00  0.00    +0.019 C 
ATOM     17  C   UNL     1      -5.468  16.309  67.545  0.00  0.00    +0.021 C 
ATOM     18  C   UNL     1      -5.308  14.213  68.647  0.00  0.00    +0.024 C 
ATOM     19  C   UNL     1      -7.562  16.970  68.582  0.00  0.00    -0.018 A 
ATOM     20  C   UNL     1      -6.386  13.510  68.388  0.00  0.00    +0.153 C 
ENDROOT
BRANCH  20  21
ATOM     21  O   UNL     1      -6.709  12.341  68.982  0.00  0.00    -0.472 OA
ATOM     22  C   UNL     1      -5.966  11.889  70.073  0.00  0.00    +0.252 C 
ENDBRANCH  20  21
BRANCH   1  23
ATOM     23  O   UNL     1      -8.698  13.907  68.455  0.00  0.00    -0.442 OA
BRANCH  23  24
ATOM     24  C   UNL     1      -9.665  13.646  67.488  0.00  0.00    +0.346 C 
ATOM     25  O   UNL     1      -9.173  13.154  66.428  0.00  0.00    -0.247 OA
BRANCH  24  26
ATOM     26  C   UNL     1     -11.103  13.831  67.566  0.00  0.00    +0.225 C 
ATOM     27  O   UNL     1     -11.536  15.146  67.315  0.00  0.00    -0.214 OA
BRANCH  26  28
ATOM     28  C   UNL     1     -11.558  13.601  69.005  0.00  0.00    +0.042 C 
BRANCH  28  29
ATOM     29  C   UNL     1     -11.994  14.879  69.678  0.00  0.00    +0.006 C 
BRANCH  29  30
ATOM     30  C   UNL     1     -11.649  14.692  71.154  0.00  0.00    +0.031 C 
BRANCH  30  31
ATOM     31  C   UNL     1     -12.911  15.065  71.919  0.00  0.00    +0.127 C 
ATOM     32  O   UNL     1     -13.847  15.694  71.117  0.00  0.00    -0.226 OA
ATOM     33  C   UNL     1     -13.508  13.748  72.382  0.00  0.00    +0.033 C 
ATOM     34  C   UNL     1     -12.581  15.932  73.122  0.00  0.00    +0.033 C 
ENDBRANCH  30  31
ENDBRANCH  29  30
ENDBRANCH  28  29
ENDBRANCH  26  28
BRANCH  26  35
ATOM     35  C   UNL     1     -11.934  12.937  66.701  0.00  0.00    +0.151 C 
BRANCH  35  36
ATOM     36  C   UNL     1     -12.352  13.712  65.491  0.00  0.00    +0.320 C 
ATOM     37  O   UNL     1     -13.584  14.000  65.403  0.00  0.00    -0.250 OA
BRANCH  36  39
ATOM     38  C   UNL     1     -11.416  12.568  63.670  0.00  0.00    +0.256 C 
ATOM     39  O   UNL     1     -11.692  13.587  64.265  0.00  0.00    -0.444 OA
ENDBRANCH  36  39
ENDBRANCH  35  36
ENDBRANCH  26  35
ENDBRANCH  24  26
ENDBRANCH  23  24
ENDBRANCH   1  23
TORSDOF 11
ENDMDL
MODEL 2
REMARK VINA RESULT:      -7.2      1.897      4.490
REMARK  Name = 
REMARK  11 active torsions:
REMARK  status: ('A' for Active; 'I' for Inactive)
REMARK    1  A    between atoms: O_2  and  C_3
REMARK    2  A    between atoms: C_3  and  C_5
REMARK    3  A    between atoms: C_5  and  C_6
REMARK    4  A    between atoms: C_6  and  C_8
REMARK    5  A    between atoms: C_6  and  C_15
REMARK    6  A    between atoms: C_8  and  C_9
REMARK    7  A    between atoms: C_9  and  C_10
REMARK    8  A    between atoms: C_10  and  C_11
REMARK    9  A    between atoms: C_15  and  O_17
REMARK   10  A    between atoms: O_17  and  C_18
REMARK   11  A    between atoms: C_19  and  O_20
REMARK                            x       y       z     vdW  Elec       q    Type
REMARK                         _______ _______ _______ _____ _____    ______ ____
ROOT
ATOM      1  C   UNL     1      -8.274  18.217  68.163  0.00  0.00    +0.230 C 
ATOM      2  C   UNL     1      -6.752  17.848  67.385  0.00  0.00    +0.087 C 
ATOM      3  C   UNL     1      -6.356  19.417  67.563  0.00  0.00    +0.074 C 
ATOM      4  N   UNL     1      -5.168  19.723  66.919  0.00  0.00    -0.271 NA
ATOM      5  C   UNL     1      -4.056  18.836  67.055  0.00  0.00    +0.077 C 
ATOM      6  C   UNL     1      -3.794  18.690  68.549  0.00  0.00    +0.043 C 
ATOM      7  C   UNL     1      -4.698  17.601  69.001  0.00  0.00    -0.021 A 
ATOM      8  C   UNL     1      -4.154  16.942  70.098  0.00  0.00    +0.036 A 
ATOM      9  C   UNL     1      -4.853  15.915  70.713  0.00  0.00    +0.176 A 
ATOM     10  O   UNL     1      -4.734  15.273  71.945  0.00  0.00    -0.435 OA
ATOM     11  C   UNL     1      -5.610  14.179  71.933  0.00  0.00    +0.429 C 
ATOM     12  O   UNL     1      -6.230  14.211  70.671  0.00  0.00    -0.435 OA
ATOM     13  C   UNL     1      -5.883  15.364  69.978  0.00  0.00    +0.176 A 
ATOM     14  C   UNL     1      -6.361  16.009  68.850  0.00  0.00    +0.036 A 
ATOM     15  C   UNL     1      -4.774  20.954  67.599  0.00  0.00    +0.072 C 
ATOM     16  C   UNL     1      -5.305  20.883  69.002  0.00  0.00    +0.019 C 
ATOM     17  C   UNL     1      -6.341  19.767  68.994  0.00  0.00    +0.021 C 
ATOM     18  C   UNL     1      -7.535  20.061  66.965  0.00  0.00    +0.024 C 
ATOM     19  C   UNL     1      -6.051  17.367  68.760  0.00  0.00    -0.018 A 
ATOM     20  C   UNL     1      -8.602  19.296  66.980  0.00  0.00    +0.153 C 
ENDROOT
BRANCH  20  21
ATOM     21  O   UNL     1      -9.418  19.083  65.926  0.00  0.00    -0.472 OA
ATOM     22  C   UNL     1     -10.644  19.746  65.854  0.00  0.00    +0.252 C 
ENDBRANCH  20  21
BRANCH   1  23
ATOM     23  O   UNL     1      -9.035  17.041  67.463  0.00  0.00    -0.442 OA
BRANCH  23  24
ATOM     24  C   UNL     1     -10.115  16.595  68.222  0.00  0.00    +0.346 C 
ATOM     25  O   UNL     1     -10.913  17.531  68.530  0.00  0.00    -0.247 OA
BRANCH  24  26
ATOM     26  C   UNL     1     -10.431  15.244  68.649  0.00  0.00    +0.225 C 
ATOM     27  O   UNL     1     -11.733  14.821  68.328  0.00  0.00    -0.214 OA
BRANCH  26  28
ATOM     28  C   UNL     1     -10.432  15.191  70.174  0.00  0.00    +0.042 C 
BRANCH  28  29
ATOM     29  C   UNL     1     -11.806  14.925  70.737  0.00  0.00    +0.006 C 
BRANCH  29  30
ATOM     30  C   UNL     1     -12.034  16.024  71.773  0.00  0.00    +0.031 C 
BRANCH  30  31
ATOM     31  C   UNL     1     -13.039  15.451  72.763  0.00  0.00    +0.127 C 
ATOM     32  O   UNL     1     -14.266  16.088  72.696  0.00  0.00    -0.226 OA
ATOM     33  C   UNL     1     -13.243  14.007  72.341  0.00  0.00    +0.033 C 
ATOM     34  C   UNL     1     -12.496  15.502  74.180  0.00  0.00    +0.033 C 
ENDBRANCH  30  31
ENDBRANCH  29  30
ENDBRANCH  28  29
ENDBRANCH  26  28
BRANCH  26  35
ATOM     35  C   UNL     1      -9.505  14.167  68.179  0.00  0.00    +0.151 C 
BRANCH  35  36
ATOM     36  C   UNL     1     -10.203  13.382  67.111  0.00  0.00    +0.320 C 
ATOM     37  O   UNL     1     -10.531  12.194  67.407  0.00  0.00    -0.250 OA
BRANCH  36  39
ATOM     38  C   UNL     1     -10.334  14.530  65.070  0.00  0.00    +0.256 C 
ATOM     39  O   UNL     1      -9.960  13.601  65.752  0.00  0.00    -0.444 OA
ENDBRANCH  36  39
ENDBRANCH  35  36
ENDBRANCH  26  35
ENDBRANCH  24  26
ENDBRANCH  23  24
ENDBRANCH   1  23
TORSDOF 11
ENDMDL
MODEL 3
REMARK VINA RESULT:      -7.1      3.356      6.730
REMARK  Name = 
REMARK  11 active torsions:
REMARK  status: ('A' for Active; 'I' for Inactive)
REMARK    1  A    between atoms: O_2  and  C_3
REMARK    2  A    between atoms: C_3  and  C_5
REMARK    3  A    between atoms: C_5  and  C_6
REMARK    4  A    between atoms: C_6  and  C_8
REMARK    5  A    between atoms: C_6  and  C_15
REMARK    6  A    between atoms: C_8  and  C_9
REMARK    7  A    between atoms: C_9  and  C_10
REMARK    8  A    between atoms: C_10  and  C_11
REMARK    9  A    between atoms: C_15  and  O_17
REMARK   10  A    between atoms: O_17  and  C_18
REMARK   11  A    between atoms: C_19  and  O_20
REMARK                            x       y       z     vdW  Elec       q    Type
REMARK                         _______ _______ _______ _____ _____    ______ ____
ROOT
ATOM      1  C   UNL     1     -10.234  10.791  68.403  0.00  0.00    +0.230 C 
ATOM      2  C   UNL     1     -11.889  10.464  68.862  0.00  0.00    +0.087 C 
ATOM      3  C   UNL     1     -11.319   9.277  69.820  0.00  0.00    +0.074 C 
ATOM      4  N   UNL     1     -12.345   8.526  70.371  0.00  0.00    -0.271 NA
ATOM      5  C   UNL     1     -13.484   9.198  70.913  0.00  0.00    +0.077 C 
ATOM      6  C   UNL     1     -12.959  10.175  71.958  0.00  0.00    +0.043 C 
ATOM      7  C   UNL     1     -12.611  11.407  71.203  0.00  0.00    -0.021 A 
ATOM      8  C   UNL     1     -12.737  12.528  72.016  0.00  0.00    +0.036 A 
ATOM      9  C   UNL     1     -12.418  13.785  71.528  0.00  0.00    +0.176 A 
ATOM     10  O   UNL     1     -12.168  15.016  72.131  0.00  0.00    -0.435 OA
ATOM     11  C   UNL     1     -12.085  15.973  71.111  0.00  0.00    +0.429 C 
ATOM     12  O   UNL     1     -12.292  15.262  69.915  0.00  0.00    -0.435 OA
ATOM     13  C   UNL     1     -12.343  13.895  70.154  0.00  0.00    +0.176 A 
ATOM     14  C   UNL     1     -12.285  12.760  69.363  0.00  0.00    +0.036 A 
ATOM     15  C   UNL     1     -11.674   7.907  71.512  0.00  0.00    +0.072 C 
ATOM     16  C   UNL     1     -10.602   8.853  71.971  0.00  0.00    +0.019 C 
ATOM     17  C   UNL     1     -10.414   9.848  70.832  0.00  0.00    +0.021 C 
ATOM     18  C   UNL     1     -10.492   8.531  68.859  0.00  0.00    +0.024 C 
ATOM     19  C   UNL     1     -11.896  11.592  70.020  0.00  0.00    -0.018 A 
ATOM     20  C   UNL     1     -10.101   9.262  67.842  0.00  0.00    +0.153 C 
ENDROOT
BRANCH  20  21
ATOM     21  O   UNL     1     -10.179   8.891  66.546  0.00  0.00    -0.472 OA
ATOM     22  C   UNL     1      -9.032   8.463  65.876  0.00  0.00    +0.252 C 
ENDBRANCH  20  21
BRANCH   1  23
ATOM     23  O   UNL     1     -10.629  11.393  67.012  0.00  0.00    -0.442 OA
BRANCH  23  24
ATOM     24  C   UNL     1      -9.875  12.521  66.699  0.00  0.00    +0.346 C 
ATOM     25  O   UNL     1      -8.661  12.407  67.047  0.00  0.00    -0.247 OA
BRANCH  24  26
ATOM     26  C   UNL     1     -10.292  13.737  66.024  0.00  0.00    +0.225 C 
ATOM     27  O   UNL     1      -9.870  13.835  64.686  0.00  0.00    -0.214 OA
BRANCH  26  28
ATOM     28  C   UNL     1      -9.603  14.931  66.677  0.00  0.00    +0.042 C 
BRANCH  28  29
ATOM     29  C   UNL     1     -10.569  16.045  66.996  0.00  0.00    +0.006 C 
BRANCH  29  30
ATOM     30  C   UNL     1      -9.998  17.281  66.303  0.00  0.00    +0.031 C 
BRANCH  30  31
ATOM     31  C   UNL     1      -9.978  18.372  67.366  0.00  0.00    +0.127 C 
ATOM     32  O   UNL     1     -10.663  18.004  68.511  0.00  0.00    -0.226 OA
ATOM     33  C   UNL     1      -8.517  18.550  67.736  0.00  0.00    +0.033 C 
ATOM     34  C   UNL     1     -10.533  19.675  66.817  0.00  0.00    +0.033 C 
ENDBRANCH  30  31
ENDBRANCH  29  30
ENDBRANCH  28  29
ENDBRANCH  26  28
BRANCH  26  35
ATOM     35  C   UNL     1     -11.760  14.027  66.029  0.00  0.00    +0.151 C 
BRANCH  35  36
ATOM     36  C   UNL     1     -12.285  13.813  64.644  0.00  0.00    +0.320 C 
ATOM     37  O   UNL     1     -12.690  14.844  64.028  0.00  0.00    -0.250 OA
BRANCH  36  39
ATOM     38  C   UNL     1     -12.576  11.851  63.391  0.00  0.00    +0.256 C 
ATOM     39  O   UNL     1     -12.911  12.622  64.264  0.00  0.00    -0.444 OA
ENDBRANCH  36  39
ENDBRANCH  35  36
ENDBRANCH  26  35
ENDBRANCH  24  26
ENDBRANCH  23  24
ENDBRANCH   1  23
TORSDOF 11
ENDMDL
MODEL 4
REMARK VINA RESULT:      -7.0      4.150      7.997
REMARK  Name = 
REMARK  11 active torsions:
REMARK  status: ('A' for Active; 'I' for Inactive)
REMARK    1  A    between atoms: O_2  and  C_3
REMARK    2  A    between atoms: C_3  and  C_5
REMARK    3  A    between atoms: C_5  and  C_6
REMARK    4  A    between atoms: C_6  and  C_8
REMARK    5  A    between atoms: C_6  and  C_15
REMARK    6  A    between atoms: C_8  and  C_9
REMARK    7  A    between atoms: C_9  and  C_10
REMARK    8  A    between atoms: C_10  and  C_11
REMARK    9  A    between atoms: C_15  and  O_17
REMARK   10  A    between atoms: O_17  and  C_18
REMARK   11  A    between atoms: C_19  and  O_20
REMARK                            x       y       z     vdW  Elec       q    Type
REMARK                         _______ _______ _______ _____ _____    ______ ____
ROOT
ATOM      1  C   UNL     1     -11.576  10.537  69.254  0.00  0.00    +0.230 C 
ATOM      2  C   UNL     1     -10.163  10.144  70.205  0.00  0.00    +0.087 C 
ATOM      3  C   UNL     1     -11.115   9.170  71.097  0.00  0.00    +0.074 C 
ATOM      4  N   UNL     1     -10.441   8.663  72.197  0.00  0.00    -0.271 NA
ATOM      5  C   UNL     1      -9.114   8.163  72.029  0.00  0.00    +0.077 C 
ATOM      6  C   UNL     1      -9.183   7.094  70.945  0.00  0.00    +0.043 C 
ATOM      7  C   UNL     1      -9.052   7.828  69.660  0.00  0.00    -0.021 A 
ATOM      8  C   UNL     1      -8.473   7.016  68.692  0.00  0.00    +0.036 A 
ATOM      9  C   UNL     1      -8.297   7.485  67.400  0.00  0.00    +0.176 A 
ATOM     10  O   UNL     1      -8.029   6.867  66.180  0.00  0.00    -0.435 OA
ATOM     11  C   UNL     1      -7.771   7.879  65.246  0.00  0.00    +0.429 C 
ATOM     12  O   UNL     1      -7.896   9.085  65.958  0.00  0.00    -0.435 OA
ATOM     13  C   UNL     1      -8.371   8.854  67.243  0.00  0.00    +0.176 A 
ATOM     14  C   UNL     1      -8.891   9.648  68.251  0.00  0.00    +0.036 A 
ATOM     15  C   UNL     1     -11.260   7.499  72.530  0.00  0.00    +0.072 C 
ATOM     16  C   UNL     1     -11.866   6.994  71.252  0.00  0.00    +0.019 C 
ATOM     17  C   UNL     1     -11.692   8.120  70.241  0.00  0.00    +0.021 C 
ATOM     18  C   UNL     1     -12.198  10.101  71.446  0.00  0.00    +0.024 C 
ATOM     19  C   UNL     1      -9.680   8.982  69.190  0.00  0.00    -0.018 A 
ATOM     20  C   UNL     1     -12.310  11.099  70.601  0.00  0.00    +0.153 C 
ENDROOT
BRANCH  20  21
ATOM     21  O   UNL     1     -12.427  12.399  70.948  0.00  0.00    -0.472 OA
ATOM     22  C   UNL     1     -13.297  12.767  71.975  0.00  0.00    +0.252 C 
ENDBRANCH  20  21
BRANCH   1  23
ATOM     23  O   UNL     1     -11.026  11.939  68.825  0.00  0.00    -0.442 OA
BRANCH  23  24
ATOM     24  C   UNL     1     -11.404  12.272  67.526  0.00  0.00    +0.346 C 
ATOM     25  O   UNL     1     -11.849  11.276  66.878  0.00  0.00    -0.247 OA
BRANCH  24  26
ATOM     26  C   UNL     1     -11.381  13.569  66.875  0.00  0.00    +0.225 C 
ATOM     27  O   UNL     1     -10.338  13.738  65.947  0.00  0.00    -0.214 OA
BRANCH  26  28
ATOM     28  C   UNL     1     -11.074  14.643  67.916  0.00  0.00    +0.042 C 
BRANCH  28  29
ATOM     29  C   UNL     1      -9.968  15.568  67.475  0.00  0.00    +0.006 C 
BRANCH  29  30
ATOM     30  C   UNL     1     -10.510  16.978  67.702  0.00  0.00    +0.031 C 
BRANCH  30  31
ATOM     31  C   UNL     1     -10.027  17.798  66.513  0.00  0.00    +0.127 C 
ATOM     32  O   UNL     1     -10.538  17.336  65.313  0.00  0.00    -0.226 OA
ATOM     33  C   UNL     1     -10.567  19.198  66.740  0.00  0.00    +0.033 C 
ATOM     34  C   UNL     1      -8.509  17.833  66.459  0.00  0.00    +0.033 C 
ENDBRANCH  30  31
ENDBRANCH  29  30
ENDBRANCH  28  29
ENDBRANCH  26  28
BRANCH  26  35
ATOM     35  C   UNL     1     -12.639  13.985  66.182  0.00  0.00    +0.151 C 
BRANCH  35  36
ATOM     36  C   UNL     1     -12.423  13.862  64.705  0.00  0.00    +0.320 C 
ATOM     37  O   UNL     1     -12.554  14.923  64.025  0.00  0.00    -0.250 OA
BRANCH  36  39
ATOM     38  C   UNL     1     -11.931  11.942  63.451  0.00  0.00    +0.256 C 
ATOM     39  O   UNL     1     -12.710  12.683  64.010  0.00  0.00    -0.444 OA
ENDBRANCH  36  39
ENDBRANCH  35  36
ENDBRANCH  26  35
ENDBRANCH  24  26
ENDBRANCH  23  24
ENDBRANCH   1  23
TORSDOF 11
ENDMDL
MODEL 5
REMARK VINA RESULT:      -7.0      1.831      4.075
REMARK  Name = 
REMARK  11 active torsions:
REMARK  status: ('A' for Active; 'I' for Inactive)
REMARK    1  A    between atoms: O_2  and  C_3
REMARK    2  A    between atoms: C_3  and  C_5
REMARK    3  A    between atoms: C_5  and  C_6
REMARK    4  A    between atoms: C_6  and  C_8
REMARK    5  A    between atoms: C_6  and  C_15
REMARK    6  A    between atoms: C_8  and  C_9
REMARK    7  A    between atoms: C_9  and  C_10
REMARK    8  A    between atoms: C_10  and  C_11
REMARK    9  A    between atoms: C_15  and  O_17
REMARK   10  A    between atoms: O_17  and  C_18
REMARK   11  A    between atoms: C_19  and  O_20
REMARK                            x       y       z     vdW  Elec       q    Type
REMARK                         _______ _______ _______ _____ _____    ______ ____
ROOT
ATOM      1  C   UNL     1      -9.236  15.790  67.361  0.00  0.00    +0.230 C 
ATOM      2  C   UNL     1      -7.675  16.346  66.803  0.00  0.00    +0.087 C 
ATOM      3  C   UNL     1      -8.235  17.867  66.961  0.00  0.00    +0.074 C 
ATOM      4  N   UNL     1      -7.337  18.798  66.463  0.00  0.00    -0.271 NA
ATOM      5  C   UNL     1      -5.951  18.665  66.781  0.00  0.00    +0.077 C 
ATOM      6  C   UNL     1      -5.851  18.637  68.301  0.00  0.00    +0.043 C 
ATOM      7  C   UNL     1      -6.058  17.215  68.681  0.00  0.00    -0.021 A 
ATOM      8  C   UNL     1      -5.393  16.927  69.867  0.00  0.00    +0.036 A 
ATOM      9  C   UNL     1      -5.487  15.664  70.432  0.00  0.00    +0.176 A 
ATOM     10  O   UNL     1      -5.199  15.152  71.696  0.00  0.00    -0.435 OA
ATOM     11  C   UNL     1      -5.319  13.758  71.619  0.00  0.00    +0.429 C 
ATOM     12  O   UNL     1      -5.681  13.487  70.288  0.00  0.00    -0.435 OA
ATOM     13  C   UNL     1      -5.936  14.663  69.594  0.00  0.00    +0.176 A 
ATOM     14  C   UNL     1      -6.536  14.977  68.387  0.00  0.00    +0.036 A 
ATOM     15  C   UNL     1      -7.779  20.019  67.132  0.00  0.00    +0.072 C 
ATOM     16  C   UNL     1      -8.363  19.619  68.456  0.00  0.00    +0.019 C 
ATOM     17  C   UNL     1      -8.604  18.118  68.365  0.00  0.00    +0.021 C 
ATOM     18  C   UNL     1      -9.481  17.776  66.187  0.00  0.00    +0.024 C 
ATOM     19  C   UNL     1      -7.015  16.283  68.277  0.00  0.00    -0.018 A 
ATOM     20  C   UNL     1      -9.943  16.550  66.099  0.00  0.00    +0.153 C 
ENDROOT
BRANCH  20  21
ATOM     21  O   UNL     1     -10.360  15.960  64.958  0.00  0.00    -0.472 OA
ATOM     22  C   UNL     1     -11.600  16.298  64.415  0.00  0.00    +0.252 C 
ENDBRANCH  20  21
BRANCH   1  23
ATOM     23  O   UNL     1      -9.125  14.414  66.622  0.00  0.00    -0.442 OA
BRANCH  23  24
ATOM     24  C   UNL     1      -9.781  13.398  67.312  0.00  0.00    +0.346 C 
ATOM     25  O   UNL     1      -8.982  12.647  67.950  0.00  0.00    -0.247 OA
BRANCH  24  26
ATOM     26  C   UNL     1     -11.206  13.134  67.408  0.00  0.00    +0.225 C 
ATOM     27  O   UNL     1     -12.023  14.260  67.198  0.00  0.00    -0.214 OA
BRANCH  26  28
ATOM     28  C   UNL     1     -11.544  12.743  68.844  0.00  0.00    +0.042 C 
BRANCH  28  29
ATOM     29  C   UNL     1     -11.520  13.925  69.780  0.00  0.00    +0.006 C 
BRANCH  29  30
ATOM     30  C   UNL     1     -12.572  13.614  70.844  0.00  0.00    +0.031 C 
BRANCH  30  31
ATOM     31  C   UNL     1     -12.978  14.963  71.423  0.00  0.00    +0.127 C 
ATOM     32  O   UNL     1     -12.868  15.987  70.498  0.00  0.00    -0.226 OA
ATOM     33  C   UNL     1     -14.444  14.822  71.787  0.00  0.00    +0.033 C 
ATOM     34  C   UNL     1     -12.167  15.288  72.665  0.00  0.00    +0.033 C 
ENDBRANCH  30  31
ENDBRANCH  29  30
ENDBRANCH  28  29
ENDBRANCH  26  28
BRANCH  26  35
ATOM     35  C   UNL     1     -11.740  12.051  66.526  0.00  0.00    +0.151 C 
BRANCH  35  36
ATOM     36  C   UNL     1     -12.024  12.640  65.180  0.00  0.00    +0.320 C 
ATOM     37  O   UNL     1     -13.220  12.555  64.768  0.00  0.00    -0.250 OA
BRANCH  36  39
ATOM     38  C   UNL     1     -10.306  11.796  63.823  0.00  0.00    +0.256 C 
ATOM     39  O   UNL     1     -11.059  12.681  64.169  0.00  0.00    -0.444 OA
ENDBRANCH  36  39
ENDBRANCH  35  36
ENDBRANCH  26  35
ENDBRANCH  24  26
ENDBRANCH  23  24
ENDBRANCH   1  23
TORSDOF 11
ENDMDL
MODEL 6
REMARK VINA RESULT:      -7.0      1.854      5.631
REMARK  Name = 
REMARK  11 active torsions:
REMARK  status: ('A' for Active; 'I' for Inactive)
REMARK    1  A    between atoms: O_2  and  C_3
REMARK    2  A    between atoms: C_3  and  C_5
REMARK    3  A    between atoms: C_5  and  C_6
REMARK    4  A    between atoms: C_6  and  C_8
REMARK    5  A    between atoms: C_6  and  C_15
REMARK    6  A    between atoms: C_8  and  C_9
REMARK    7  A    between atoms: C_9  and  C_10
REMARK    8  A    between atoms: C_10  and  C_11
REMARK    9  A    between atoms: C_15  and  O_17
REMARK   10  A    between atoms: O_17  and  C_18
REMARK   11  A    between atoms: C_19  and  O_20
REMARK                            x       y       z     vdW  Elec       q    Type
REMARK                         _______ _______ _______ _____ _____    ______ ____
ROOT
ATOM      1  C   UNL     1      -8.467  18.006  68.257  0.00  0.00    +0.230 C 
ATOM      2  C   UNL     1      -6.940  17.697  67.463  0.00  0.00    +0.087 C 
ATOM      3  C   UNL     1      -6.615  19.285  67.617  0.00  0.00    +0.074 C 
ATOM      4  N   UNL     1      -5.450  19.636  66.954  0.00  0.00    -0.271 NA
ATOM      5  C   UNL     1      -4.297  18.803  67.086  0.00  0.00    +0.077 C 
ATOM      6  C   UNL     1      -4.009  18.688  68.578  0.00  0.00    +0.043 C 
ATOM      7  C   UNL     1      -4.856  17.565  69.056  0.00  0.00    -0.021 A 
ATOM      8  C   UNL     1      -4.270  16.946  70.154  0.00  0.00    +0.036 A 
ATOM      9  C   UNL     1      -4.913  15.896  70.791  0.00  0.00    +0.176 A 
ATOM     10  O   UNL     1      -4.749  15.276  72.028  0.00  0.00    -0.435 OA
ATOM     11  C   UNL     1      -5.574  14.143  72.041  0.00  0.00    +0.429 C 
ATOM     12  O   UNL     1      -6.210  14.131  70.787  0.00  0.00    -0.435 OA
ATOM     13  C   UNL     1      -5.925  15.289  70.075  0.00  0.00    +0.176 A 
ATOM     14  C   UNL     1      -6.446  15.897  68.946  0.00  0.00    +0.036 A 
ATOM     15  C   UNL     1      -5.104  20.893  67.613  0.00  0.00    +0.072 C 
ATOM     16  C   UNL     1      -5.614  20.816  69.024  0.00  0.00    +0.019 C 
ATOM     17  C   UNL     1      -6.598  19.653  69.044  0.00  0.00    +0.021 C 
ATOM     18  C   UNL     1      -7.829  19.866  67.026  0.00  0.00    +0.024 C 
ATOM     19  C   UNL     1      -6.201  17.266  68.835  0.00  0.00    -0.018 A 
ATOM     20  C   UNL     1      -8.859  19.053  67.065  0.00  0.00    +0.153 C 
ENDROOT
BRANCH  20  21
ATOM     21  O   UNL     1      -9.678  18.789  66.024  0.00  0.00    -0.472 OA
ATOM     22  C   UNL     1     -10.703  19.681  65.705  0.00  0.00    +0.252 C 
ENDBRANCH  20  21
BRANCH   1  23
ATOM     23  O   UNL     1      -9.183  16.787  67.582  0.00  0.00    -0.442 OA
BRANCH  23  24
ATOM     24  C   UNL     1     -10.293  16.367  68.309  0.00  0.00    +0.346 C 
ATOM     25  O   UNL     1     -11.246  17.203  68.269  0.00  0.00    -0.247 OA
BRANCH  24  26
ATOM     26  C   UNL     1     -10.487  15.128  69.041  0.00  0.00    +0.225 C 
ATOM     27  O   UNL     1      -9.417  14.220  68.947  0.00  0.00    -0.214 OA
BRANCH  26  28
ATOM     28  C   UNL     1     -11.638  14.350  68.409  0.00  0.00    +0.042 C 
BRANCH  28  29
ATOM     29  C   UNL     1     -11.272  13.783  67.060  0.00  0.00    +0.006 C 
BRANCH  29  30
ATOM     30  C   UNL     1     -12.494  14.028  66.177  0.00  0.00    +0.031 C 
BRANCH  30  31
ATOM     31  C   UNL     1     -12.001  13.877  64.744  0.00  0.00    +0.127 C 
ATOM     32  O   UNL     1     -12.576  14.802  63.889  0.00  0.00    -0.226 OA
ATOM     33  C   UNL     1     -10.511  14.159  64.798  0.00  0.00    +0.033 C 
ATOM     34  C   UNL     1     -12.240  12.468  64.232  0.00  0.00    +0.033 C 
ENDBRANCH  30  31
ENDBRANCH  29  30
ENDBRANCH  28  29
ENDBRANCH  26  28
BRANCH  26  35
ATOM     35  C   UNL     1     -10.804  15.262  70.497  0.00  0.00    +0.151 C 
BRANCH  35  36
ATOM     36  C   UNL     1     -12.254  14.944  70.692  0.00  0.00    +0.320 C 
ATOM     37  O   UNL     1     -13.039  15.933  70.802  0.00  0.00    -0.250 OA
BRANCH  36  39
ATOM     38  C   UNL     1     -13.539  13.684  72.197  0.00  0.00    +0.256 C 
ATOM     39  O   UNL     1     -12.677  13.786  71.351  0.00  0.00    -0.444 OA
ENDBRANCH  36  39
ENDBRANCH  35  36
ENDBRANCH  26  35
ENDBRANCH  24  26
ENDBRANCH  23  24
ENDBRANCH   1  23
TORSDOF 11
ENDMDL
MODEL 7
REMARK VINA RESULT:      -6.8      4.924      8.567
REMARK  Name = 
REMARK  11 active torsions:
REMARK  status: ('A' for Active; 'I' for Inactive)
REMARK    1  A    between atoms: O_2  and  C_3
REMARK    2  A    between atoms: C_3  and  C_5
REMARK    3  A    between atoms: C_5  and  C_6
REMARK    4  A    between atoms: C_6  and  C_8
REMARK    5  A    between atoms: C_6  and  C_15
REMARK    6  A    between atoms: C_8  and  C_9
REMARK    7  A    between atoms: C_9  and  C_10
REMARK    8  A    between atoms: C_10  and  C_11
REMARK    9  A    between atoms: C_15  and  O_17
REMARK   10  A    between atoms: O_17  and  C_18
REMARK   11  A    between atoms: C_19  and  O_20
REMARK                            x       y       z     vdW  Elec       q    Type
REMARK                         _______ _______ _______ _____ _____    ______ ____
ROOT
ATOM      1  C   UNL     1     -10.187  12.044  67.950  0.00  0.00    +0.230 C 
ATOM      2  C   UNL     1     -11.420  11.551  66.812  0.00  0.00    +0.087 C 
ATOM      3  C   UNL     1     -11.489  13.101  66.318  0.00  0.00    +0.074 C 
ATOM      4  N   UNL     1     -12.524  13.307  65.419  0.00  0.00    -0.271 NA
ATOM      5  C   UNL     1     -12.727  12.363  64.366  0.00  0.00    +0.077 C 
ATOM      6  C   UNL     1     -11.411  12.270  63.603  0.00  0.00    +0.043 C 
ATOM      7  C   UNL     1     -10.605  11.257  64.334  0.00  0.00    -0.021 A 
ATOM      8  C   UNL     1      -9.726  10.618  63.467  0.00  0.00    +0.036 A 
ATOM      9  C   UNL     1      -8.843   9.663  63.947  0.00  0.00    +0.176 A 
ATOM     10  O   UNL     1      -7.692   9.071  63.429  0.00  0.00    -0.435 OA
ATOM     11  C   UNL     1      -7.331   8.031  64.296  0.00  0.00    +0.429 C 
ATOM     12  O   UNL     1      -8.298   8.043  65.316  0.00  0.00    -0.435 OA
ATOM     13  C   UNL     1      -9.140   9.140  65.189  0.00  0.00    +0.176 A 
ATOM     14  C   UNL     1     -10.070   9.761  66.006  0.00  0.00    +0.036 A 
ATOM     15  C   UNL     1     -12.102  14.543  64.764  0.00  0.00    +0.072 C 
ATOM     16  C   UNL     1     -10.600  14.566  64.773  0.00  0.00    +0.019 C 
ATOM     17  C   UNL     1     -10.178  13.513  65.789  0.00  0.00    +0.021 C 
ATOM     18  C   UNL     1     -11.681  13.785  67.605  0.00  0.00    +0.024 C 
ATOM     19  C   UNL     1     -10.346  11.092  65.694  0.00  0.00    -0.018 A 
ATOM     20  C   UNL     1     -11.248  13.086  68.628  0.00  0.00    +0.153 C 
ENDROOT
BRANCH  20  21
ATOM     21  O   UNL     1     -11.937  12.874  69.770  0.00  0.00    -0.472 OA
ATOM     22  C   UNL     1     -12.291  13.955  70.578  0.00  0.00    +0.252 C 
ENDBRANCH  20  21
BRANCH   1  23
ATOM     23  O   UNL     1     -10.503  10.884  68.954  0.00  0.00    -0.442 OA
BRANCH  23  24
ATOM     24  C   UNL     1      -9.345  10.254  69.403  0.00  0.00    +0.346 C 
ATOM     25  O   UNL     1      -8.292  10.884  69.082  0.00  0.00    -0.247 OA
BRANCH  24  26
ATOM     26  C   UNL     1      -9.216   9.040  70.188  0.00  0.00    +0.225 C 
ATOM     27  O   UNL     1      -8.570   9.211  71.426  0.00  0.00    -0.214 OA
BRANCH  26  28
ATOM     28  C   UNL     1      -8.285   8.074  69.460  0.00  0.00    +0.042 C 
BRANCH  28  29
ATOM     29  C   UNL     1      -8.709   6.636  69.625  0.00  0.00    +0.006 C 
BRANCH  29  30
ATOM     30  C   UNL     1      -8.609   6.025  68.228  0.00  0.00    +0.031 C 
BRANCH  30  31
ATOM     31  C   UNL     1      -9.910   5.263  68.021  0.00  0.00    +0.127 C 
ATOM     32  O   UNL     1     -10.491   4.879  69.218  0.00  0.00    -0.226 OA
ATOM     33  C   UNL     1     -10.850   6.242  67.342  0.00  0.00    +0.033 C 
ATOM     34  C   UNL     1      -9.695   4.052  67.130  0.00  0.00    +0.033 C 
ENDBRANCH  30  31
ENDBRANCH  29  30
ENDBRANCH  28  29
ENDBRANCH  26  28
BRANCH  26  35
ATOM     35  C   UNL     1     -10.481   8.293  70.467  0.00  0.00    +0.151 C 
BRANCH  35  36
ATOM     36  C   UNL     1     -11.079   8.839  71.727  0.00  0.00    +0.320 C 
ATOM     37  O   UNL     1     -11.246   8.015  72.676  0.00  0.00    -0.250 OA
BRANCH  36  39
ATOM     38  C   UNL     1     -13.103   9.933  71.268  0.00  0.00    +0.256 C 
ATOM     39  O   UNL     1     -11.978   9.910  71.718  0.00  0.00    -0.444 OA
ENDBRANCH  36  39
ENDBRANCH  35  36
ENDBRANCH  26  35
ENDBRANCH  24  26
ENDBRANCH  23  24
ENDBRANCH   1  23
TORSDOF 11
ENDMDL
MODEL 8
REMARK VINA RESULT:      -6.7      3.962      7.305
REMARK  Name = 
REMARK  11 active torsions:
REMARK  status: ('A' for Active; 'I' for Inactive)
REMARK    1  A    between atoms: O_2  and  C_3
REMARK    2  A    between atoms: C_3  and  C_5
REMARK    3  A    between atoms: C_5  and  C_6
REMARK    4  A    between atoms: C_6  and  C_8
REMARK    5  A    between atoms: C_6  and  C_15
REMARK    6  A    between atoms: C_8  and  C_9
REMARK    7  A    between atoms: C_9  and  C_10
REMARK    8  A    between atoms: C_10  and  C_11
REMARK    9  A    between atoms: C_15  and  O_17
REMARK   10  A    between atoms: O_17  and  C_18
REMARK   11  A    between atoms: C_19  and  O_20
REMARK                            x       y       z     vdW  Elec       q    Type
REMARK                         _______ _______ _______ _____ _____    ______ ____
ROOT
ATOM      1  C   UNL     1      -9.275  10.020  69.548  0.00  0.00    +0.230 C 
ATOM      2  C   UNL     1     -10.841   9.252  69.425  0.00  0.00    +0.087 C 
ATOM      3  C   UNL     1     -10.312   8.152  70.502  0.00  0.00    +0.074 C 
ATOM      4  N   UNL     1     -11.223   7.120  70.670  0.00  0.00    -0.271 NA
ATOM      5  C   UNL     1     -12.609   7.434  70.812  0.00  0.00    +0.077 C 
ATOM      6  C   UNL     1     -12.721   8.400  71.985  0.00  0.00    +0.043 C 
ATOM      7  C   UNL     1     -12.491   9.749  71.407  0.00  0.00    -0.021 A 
ATOM      8  C   UNL     1     -13.161  10.717  72.147  0.00  0.00    +0.036 A 
ATOM      9  C   UNL     1     -13.049  12.056  71.809  0.00  0.00    +0.176 A 
ATOM     10  O   UNL     1     -13.338  13.244  72.479  0.00  0.00    -0.435 OA
ATOM     11  C   UNL     1     -13.192  14.290  71.558  0.00  0.00    +0.429 C 
ATOM     12  O   UNL     1     -12.813  13.674  70.351  0.00  0.00    -0.435 OA
ATOM     13  C   UNL     1     -12.573  12.319  70.541  0.00  0.00    +0.176 A 
ATOM     14  C   UNL     1     -11.969  11.319  69.799  0.00  0.00    +0.036 A 
ATOM     15  C   UNL     1     -10.810   6.573  71.961  0.00  0.00    +0.072 C 
ATOM     16  C   UNL     1     -10.230   7.702  72.763  0.00  0.00    +0.019 C 
ATOM     17  C   UNL     1      -9.961   8.821  71.766  0.00  0.00    +0.021 C 
ATOM     18  C   UNL     1      -9.057   7.732  69.861  0.00  0.00    +0.024 C 
ATOM     19  C   UNL     1     -11.514  10.221  70.531  0.00  0.00    -0.018 A 
ATOM     20  C   UNL     1      -8.571   8.635  69.041  0.00  0.00    +0.153 C 
ENDROOT
BRANCH  20  21
ATOM     21  O   UNL     1      -8.133   8.388  67.788  0.00  0.00    -0.472 OA
ATOM     22  C   UNL     1      -7.780   7.089  67.421  0.00  0.00    +0.252 C 
ENDBRANCH  20  21
BRANCH   1  23
ATOM     23  O   UNL     1      -9.353  10.643  68.113  0.00  0.00    -0.442 OA
BRANCH  23  24
ATOM     24  C   UNL     1      -8.759  11.901  68.059  0.00  0.00    +0.346 C 
ATOM     25  O   UNL     1      -7.706  11.973  68.762  0.00  0.00    -0.247 OA
BRANCH  24  26
ATOM     26  C   UNL     1      -9.167  13.070  67.299  0.00  0.00    +0.225 C 
ATOM     27  O   UNL     1      -8.120  13.951  66.976  0.00  0.00    -0.214 OA
BRANCH  26  28
ATOM     28  C   UNL     1     -10.073  13.937  68.169  0.00  0.00    +0.042 C 
BRANCH  28  29
ATOM     29  C   UNL     1      -9.499  15.312  68.401  0.00  0.00    +0.006 C 
BRANCH  29  30
ATOM     30  C   UNL     1     -10.558  16.282  67.881  0.00  0.00    +0.031 C 
BRANCH  30  31
ATOM     31  C   UNL     1      -9.800  17.309  67.051  0.00  0.00    +0.127 C 
ATOM     32  O   UNL     1      -9.826  17.015  65.698  0.00  0.00    -0.226 OA
ATOM     33  C   UNL     1     -10.537  18.619  67.256  0.00  0.00    +0.033 C 
ATOM     34  C   UNL     1      -8.365  17.444  67.532  0.00  0.00    +0.033 C 
ENDBRANCH  30  31
ENDBRANCH  29  30
ENDBRANCH  28  29
ENDBRANCH  26  28
BRANCH  26  35
ATOM     35  C   UNL     1      -9.909  12.806  66.028  0.00  0.00    +0.151 C 
BRANCH  35  36
ATOM     36  C   UNL     1     -11.376  12.913  66.311  0.00  0.00    +0.320 C 
ATOM     37  O   UNL     1     -11.990  11.824  66.522  0.00  0.00    -0.250 OA
BRANCH  36  39
ATOM     38  C   UNL     1     -12.011  14.511  64.715  0.00  0.00    +0.256 C 
ATOM     39  O   UNL     1     -12.164  13.933  65.770  0.00  0.00    -0.444 OA
ENDBRANCH  36  39
ENDBRANCH  35  36
ENDBRANCH  26  35
ENDBRANCH  24  26
ENDBRANCH  23  24
ENDBRANCH   1  23
TORSDOF 11
ENDMDL
MODEL 9
REMARK VINA RESULT:      -6.7      4.222      7.987
REMARK  Name = 
REMARK  11 active torsions:
REMARK  status: ('A' for Active; 'I' for Inactive)
REMARK    1  A    between atoms: O_2  and  C_3
REMARK    2  A    between atoms: C_3  and  C_5
REMARK    3  A    between atoms: C_5  and  C_6
REMARK    4  A    between atoms: C_6  and  C_8
REMARK    5  A    between atoms: C_6  and  C_15
REMARK    6  A    between atoms: C_8  and  C_9
REMARK    7  A    between atoms: C_9  and  C_10
REMARK    8  A    between atoms: C_10  and  C_11
REMARK    9  A    between atoms: C_15  and  O_17
REMARK   10  A    between atoms: O_17  and  C_18
REMARK   11  A    between atoms: C_19  and  O_20
REMARK                            x       y       z     vdW  Elec       q    Type
REMARK                         _______ _______ _______ _____ _____    ______ ____
ROOT
ATOM      1  C   UNL     1      -9.112   9.293  70.002  0.00  0.00    +0.230 C 
ATOM      2  C   UNL     1     -10.713   8.642  69.738  0.00  0.00    +0.087 C 
ATOM      3  C   UNL     1     -10.420   7.605  70.958  0.00  0.00    +0.074 C 
ATOM      4  N   UNL     1     -11.432   6.667  71.088  0.00  0.00    -0.271 NA
ATOM      5  C   UNL     1     -12.792   7.100  71.023  0.00  0.00    +0.077 C 
ATOM      6  C   UNL     1     -12.961   8.173  72.092  0.00  0.00    +0.043 C 
ATOM      7  C   UNL     1     -12.543   9.442  71.443  0.00  0.00    -0.021 A 
ATOM      8  C   UNL     1     -13.210  10.522  72.011  0.00  0.00    +0.036 A 
ATOM      9  C   UNL     1     -12.938  11.813  71.586  0.00  0.00    +0.176 A 
ATOM     10  O   UNL     1     -13.201  13.075  72.116  0.00  0.00    -0.435 OA
ATOM     11  C   UNL     1     -12.850  14.019  71.142  0.00  0.00    +0.429 C 
ATOM     12  O   UNL     1     -12.382  13.270  70.048  0.00  0.00    -0.435 OA
ATOM     13  C   UNL     1     -12.289  11.923  70.373  0.00  0.00    +0.176 A 
ATOM     14  C   UNL     1     -11.690  10.816  69.797  0.00  0.00    +0.036 A 
ATOM     15  C   UNL     1     -11.231   6.207  72.460  0.00  0.00    +0.072 C 
ATOM     16  C   UNL     1     -10.656   7.355  73.239  0.00  0.00    +0.019 C 
ATOM     17  C   UNL     1     -10.168   8.356  72.200  0.00  0.00    +0.021 C 
ATOM     18  C   UNL     1      -9.138   7.032  70.521  0.00  0.00    +0.024 C 
ATOM     19  C   UNL     1     -11.427   9.756  70.667  0.00  0.00    -0.018 A 
ATOM     20  C   UNL     1      -8.477   7.818  69.702  0.00  0.00    +0.153 C 
ENDROOT
BRANCH  20  21
ATOM     21  O   UNL     1      -7.912   7.426  68.540  0.00  0.00    -0.472 OA
ATOM     22  C   UNL     1      -6.533   7.218  68.474  0.00  0.00    +0.252 C 
ENDBRANCH  20  21
BRANCH   1  23
ATOM     23  O   UNL     1      -8.957   9.790  68.524  0.00  0.00    -0.442 OA
BRANCH  23  24
ATOM     24  C   UNL     1      -8.330  11.031  68.455  0.00  0.00    +0.346 C 
ATOM     25  O   UNL     1      -7.304  11.100  69.198  0.00  0.00    -0.247 OA
BRANCH  24  26
ATOM     26  C   UNL     1      -8.678  12.183  67.643  0.00  0.00    +0.225 C 
ATOM     27  O   UNL     1      -9.651  13.025  68.212  0.00  0.00    -0.214 OA
BRANCH  26  28
ATOM     28  C   UNL     1      -9.361  11.704  66.365  0.00  0.00    +0.042 C 
BRANCH  28  29
ATOM     29  C   UNL     1     -10.715  12.339  66.168  0.00  0.00    +0.006 C 
BRANCH  29  30
ATOM     30  C   UNL     1     -10.634  13.042  64.814  0.00  0.00    +0.031 C 
BRANCH  30  31
ATOM     31  C   UNL     1     -11.587  14.226  64.911  0.00  0.00    +0.127 C 
ATOM     32  O   UNL     1     -12.466  14.283  63.843  0.00  0.00    -0.226 OA
ATOM     33  C   UNL     1     -12.401  13.988  66.169  0.00  0.00    +0.033 C 
ATOM     34  C   UNL     1     -10.821  15.532  65.032  0.00  0.00    +0.033 C 
ENDBRANCH  30  31
ENDBRANCH  29  30
ENDBRANCH  28  29
ENDBRANCH  26  28
BRANCH  26  35
ATOM     35  C   UNL     1      -7.545  13.064  67.223  0.00  0.00    +0.151 C 
BRANCH  35  36
ATOM     36  C   UNL     1      -7.766  14.423  67.812  0.00  0.00    +0.320 C 
ATOM     37  O   UNL     1      -7.833  15.389  66.993  0.00  0.00    -0.250 OA
BRANCH  36  39
ATOM     38  C   UNL     1      -6.244  14.450  69.597  0.00  0.00    +0.256 C 
ATOM     39  O   UNL     1      -7.295  14.767  69.082  0.00  0.00    -0.444 OA
ENDBRANCH  36  39
ENDBRANCH  35  36
ENDBRANCH  26  35
ENDBRANCH  24  26
ENDBRANCH  23  24
ENDBRANCH   1  23
TORSDOF 11
ENDMDL
