MODEL 1
REMARK VINA RESULT:      -7.2      0.000      0.000
REMARK  Name = 
REMARK  9 active torsions:
REMARK  status: ('A' for Active; 'I' for Inactive)
REMARK    1  A    between atoms: C_3  and  C_4
REMARK    2  A    between atoms: C_4  and  C_5
REMARK    3  A    between atoms: C_5  and  C_7
REMARK    4  A    between atoms: C_7  and  C_9
REMARK    5  A    between atoms: C_10  and  C_11
REMARK    6  A    between atoms: C_18  and  C_19
REMARK    7  A    between atoms: C_19  and  C_20
REMARK    8  A    between atoms: C_20  and  C_21
REMARK    9  A    between atoms: C_21  and  C_22
REMARK                            x       y       z     vdW  Elec       q    Type
REMARK                         _______ _______ _______ _____ _____    ______ ____
ROOT
ATOM      1  C   UNL     1     -10.069  17.837  66.541  0.00  0.00    +0.052 C 
ATOM      2  C   UNL     1      -8.553  17.918  67.231  0.00  0.00    +0.011 C 
ATOM      3  C   UNL     1      -9.107  18.533  68.688  0.00  0.00    +0.007 C 
ATOM      4  C   UNL     1      -7.599  19.051  69.027  0.00  0.00    +0.022 C 
ATOM      5  C   UNL     1      -7.260  19.802  67.808  0.00  0.00    -0.048 C 
ATOM      6  C   UNL     1      -6.442  20.838  67.964  0.00  0.00    -0.035 C 
ATOM      7  C   UNL     1      -9.527  19.883  67.941  0.00  0.00    +0.034 C 
ATOM      8  C   UNL     1      -8.042  19.328  66.638  0.00  0.00    +0.022 C 
ATOM      9  C   UNL     1     -10.714  19.338  66.991  0.00  0.00    +0.156 C 
ATOM     10  O   UNL     1     -10.163  20.021  65.746  0.00  0.00    -0.223 OA
ENDROOT
BRANCH   1  12
ATOM     11  C   UNL     1     -10.476  15.831  68.013  0.00  0.00    +0.002 C 
ATOM     12  C   UNL     1     -10.732  17.110  67.798  0.00  0.00    -0.026 C 
BRANCH  11  13
ATOM     13  C   UNL     1     -11.794  14.995  68.460  0.00  0.00    +0.175 C 
ATOM     14  O   UNL     1     -11.202  13.718  67.892  0.00  0.00    -0.218 OA
BRANCH  13  15
ATOM     15  C   UNL     1     -11.298  14.707  70.079  0.00  0.00    +0.048 C 
ATOM     16  C   UNL     1     -12.237  13.422  70.369  0.00  0.00    +0.004 C 
BRANCH  15  17
ATOM     17  C   UNL     1     -12.377  15.740  70.681  0.00  0.00    +0.079 C 
BRANCH  17  20
ATOM     18  C   UNL     1     -12.475  15.552  74.044  0.00  0.00    +0.090 C 
ATOM     19  C   UNL     1     -12.309  15.663  73.263  0.00  0.00    -0.090 C 
ATOM     20  C   UNL     1     -12.078  15.882  72.100  0.00  0.00    -0.091 C 
ENDBRANCH  17  20
ENDBRANCH  15  17
ENDBRANCH  13  15
ENDBRANCH  11  13
ENDBRANCH   1  12
BRANCH   6  21
ATOM     21  C   UNL     1      -5.045  20.441  68.061  0.00  0.00    +0.026 C 
BRANCH  21  22
ATOM     22  C   UNL     1      -4.269  20.891  69.243  0.00  0.00    +0.016 C 
BRANCH  22  23
ATOM     23  C   UNL     1      -4.254  19.663  70.147  0.00  0.00    +0.114 C 
BRANCH  23  24
ATOM     24  C   UNL     1      -4.661  20.055  71.508  0.00  0.00    +0.365 C 
ATOM     25  O   UNL     1      -5.901  20.626  71.679  0.00  0.00    -0.246 OA
ATOM     26  O   UNL     1      -3.786  20.164  72.407  0.00  0.00    -0.246 OA
ENDBRANCH  23  24
ENDBRANCH  22  23
ENDBRANCH  21  22
ENDBRANCH   6  21
TORSDOF 9
ENDMDL
MODEL 2
REMARK VINA RESULT:      -7.1      1.499      2.005
REMARK  Name = 
REMARK  9 active torsions:
REMARK  status: ('A' for Active; 'I' for Inactive)
REMARK    1  A    between atoms: C_3  and  C_4
REMARK    2  A    between atoms: C_4  and  C_5
REMARK    3  A    between atoms: C_5  and  C_7
REMARK    4  A    between atoms: C_7  and  C_9
REMARK    5  A    between atoms: C_10  and  C_11
REMARK    6  A    between atoms: C_18  and  C_19
REMARK    7  A    between atoms: C_19  and  C_20
REMARK    8  A    between atoms: C_20  and  C_21
REMARK    9  A    between atoms: C_21  and  C_22
REMARK                            x       y       z     vdW  Elec       q    Type
REMARK                         _______ _______ _______ _____ _____    ______ ____
ROOT
ATOM      1  C   UNL     1      -9.542  15.676  67.696  0.00  0.00    +0.052 C 
ATOM      2  C   UNL     1      -8.768  16.949  68.444  0.00  0.00    +0.011 C 
ATOM      3  C   UNL     1     -10.140  17.908  68.521  0.00  0.00    +0.007 C 
ATOM      4  C   UNL     1      -9.196  19.219  68.736  0.00  0.00    +0.022 C 
ATOM      5  C   UNL     1      -8.252  19.094  67.614  0.00  0.00    -0.048 C 
ATOM      6  C   UNL     1      -7.787  20.232  67.109  0.00  0.00    -0.035 C 
ATOM      7  C   UNL     1     -10.133  18.020  66.926  0.00  0.00    +0.034 C 
ATOM      8  C   UNL     1      -8.122  17.687  67.162  0.00  0.00    +0.022 C 
ATOM      9  C   UNL     1     -10.450  16.490  66.520  0.00  0.00    +0.156 C 
ATOM     10  O   UNL     1      -9.318  16.422  65.504  0.00  0.00    -0.223 OA
ENDROOT
BRANCH   1  12
ATOM     11  C   UNL     1     -10.828  14.724  69.645  0.00  0.00    +0.002 C 
ATOM     12  C   UNL     1     -10.768  15.666  68.719  0.00  0.00    -0.026 C 
BRANCH  11  13
ATOM     13  C   UNL     1     -12.327  14.133  69.840  0.00  0.00    +0.175 C 
ATOM     14  O   UNL     1     -11.811  12.715  69.685  0.00  0.00    -0.218 OA
BRANCH  13  15
ATOM     15  C   UNL     1     -12.310  14.134  71.558  0.00  0.00    +0.048 C 
ATOM     16  C   UNL     1     -13.499  13.060  71.788  0.00  0.00    +0.004 C 
BRANCH  15  17
ATOM     17  C   UNL     1     -13.312  15.391  71.650  0.00  0.00    +0.079 C 
BRANCH  17  20
ATOM     18  C   UNL     1     -12.417  15.921  74.856  0.00  0.00    +0.090 C 
ATOM     19  C   UNL     1     -12.719  15.925  74.109  0.00  0.00    -0.090 C 
ATOM     20  C   UNL     1     -13.216  15.907  73.010  0.00  0.00    -0.091 C 
ENDBRANCH  17  20
ENDBRANCH  15  17
ENDBRANCH  13  15
ENDBRANCH  11  13
ENDBRANCH   1  12
BRANCH   6  21
ATOM     21  C   UNL     1      -6.707  20.800  67.903  0.00  0.00    +0.026 C 
BRANCH  21  22
ATOM     22  C   UNL     1      -5.679  19.879  68.449  0.00  0.00    +0.016 C 
BRANCH  22  23
ATOM     23  C   UNL     1      -5.667  20.204  69.939  0.00  0.00    +0.114 C 
BRANCH  23  24
ATOM     24  C   UNL     1      -5.571  18.951  70.709  0.00  0.00    +0.365 C 
ATOM     25  O   UNL     1      -4.940  18.982  71.930  0.00  0.00    -0.246 OA
ATOM     26  O   UNL     1      -5.764  17.851  70.126  0.00  0.00    -0.246 OA
ENDBRANCH  23  24
ENDBRANCH  22  23
ENDBRANCH  21  22
ENDBRANCH   6  21
TORSDOF 9
ENDMDL
MODEL 3
REMARK VINA RESULT:      -6.9      3.159      4.482
REMARK  Name = 
REMARK  9 active torsions:
REMARK  status: ('A' for Active; 'I' for Inactive)
REMARK    1  A    between atoms: C_3  and  C_4
REMARK    2  A    between atoms: C_4  and  C_5
REMARK    3  A    between atoms: C_5  and  C_7
REMARK    4  A    between atoms: C_7  and  C_9
REMARK    5  A    between atoms: C_10  and  C_11
REMARK    6  A    between atoms: C_18  and  C_19
REMARK    7  A    between atoms: C_19  and  C_20
REMARK    8  A    between atoms: C_20  and  C_21
REMARK    9  A    between atoms: C_21  and  C_22
REMARK                            x       y       z     vdW  Elec       q    Type
REMARK                         _______ _______ _______ _____ _____    ______ ____
ROOT
ATOM      1  C   UNL     1     -10.209  17.709  66.101  0.00  0.00    +0.052 C 
ATOM      2  C   UNL     1      -8.595  17.693  66.521  0.00  0.00    +0.011 C 
ATOM      3  C   UNL     1      -8.806  16.639  67.806  0.00  0.00    +0.007 C 
ATOM      4  C   UNL     1      -7.373  17.119  68.417  0.00  0.00    +0.022 C 
ATOM      5  C   UNL     1      -7.525  18.582  68.424  0.00  0.00    -0.048 C 
ATOM      6  C   UNL     1      -6.883  19.235  69.386  0.00  0.00    -0.035 C 
ATOM      7  C   UNL     1      -9.641  17.766  68.573  0.00  0.00    +0.034 C 
ATOM      8  C   UNL     1      -8.517  19.033  67.416  0.00  0.00    +0.022 C 
ATOM      9  C   UNL     1     -10.940  17.872  67.621  0.00  0.00    +0.156 C 
ATOM     10  O   UNL     1     -10.890  19.393  67.555  0.00  0.00    -0.223 OA
ENDROOT
BRANCH   1  12
ATOM     11  C   UNL     1     -10.618  15.471  65.014  0.00  0.00    +0.002 C 
ATOM     12  C   UNL     1     -10.355  16.120  66.136  0.00  0.00    -0.026 C 
BRANCH  11  13
ATOM     13  C   UNL     1     -11.714  14.291  65.217  0.00  0.00    +0.175 C 
ATOM     14  O   UNL     1     -12.568  14.865  64.102  0.00  0.00    -0.218 OA
BRANCH  13  15
ATOM     15  C   UNL     1     -10.920  13.123  64.238  0.00  0.00    +0.048 C 
ATOM     16  C   UNL     1     -12.225  12.260  63.827  0.00  0.00    +0.004 C 
BRANCH  15  17
ATOM     17  C   UNL     1     -10.583  12.176  65.496  0.00  0.00    +0.079 C 
BRANCH  17  20
ATOM     18  C   UNL     1      -9.200   9.120  65.169  0.00  0.00    +0.090 C 
ATOM     19  C   UNL     1      -9.527   9.853  65.089  0.00  0.00    -0.090 C 
ATOM     20  C   UNL     1      -9.966  10.969  64.962  0.00  0.00    -0.091 C 
ENDBRANCH  17  20
ENDBRANCH  15  17
ENDBRANCH  13  15
ENDBRANCH  11  13
ENDBRANCH   1  12
BRANCH   6  21
ATOM     21  C   UNL     1      -5.470  19.423  69.091  0.00  0.00    +0.026 C 
BRANCH  21  22
ATOM     22  C   UNL     1      -4.901  20.787  69.225  0.00  0.00    +0.016 C 
BRANCH  22  23
ATOM     23  C   UNL     1      -3.702  20.582  70.145  0.00  0.00    +0.114 C 
BRANCH  23  24
ATOM     24  C   UNL     1      -4.093  20.900  71.531  0.00  0.00    +0.365 C 
ATOM     25  O   UNL     1      -4.455  22.193  71.827  0.00  0.00    -0.246 OA
ATOM     26  O   UNL     1      -3.791  20.100  72.456  0.00  0.00    -0.246 OA
ENDBRANCH  23  24
ENDBRANCH  22  23
ENDBRANCH  21  22
ENDBRANCH   6  21
TORSDOF 9
ENDMDL
MODEL 4
REMARK VINA RESULT:      -6.9      2.842      3.791
REMARK  Name = 
REMARK  9 active torsions:
REMARK  status: ('A' for Active; 'I' for Inactive)
REMARK    1  A    between atoms: C_3  and  C_4
REMARK    2  A    between atoms: C_4  and  C_5
REMARK    3  A    between atoms: C_5  and  C_7
REMARK    4  A    between atoms: C_7  and  C_9
REMARK    5  A    between atoms: C_10  and  C_11
REMARK    6  A    between atoms: C_18  and  C_19
REMARK    7  A    between atoms: C_19  and  C_20
REMARK    8  A    between atoms: C_20  and  C_21
REMARK    9  A    between atoms: C_21  and  C_22
REMARK                            x       y       z     vdW  Elec       q    Type
REMARK                         _______ _______ _______ _____ _____    ______ ____
ROOT
ATOM      1  C   UNL     1     -10.186  17.715  66.204  0.00  0.00    +0.052 C 
ATOM      2  C   UNL     1      -8.562  17.520  66.527  0.00  0.00    +0.011 C 
ATOM      3  C   UNL     1      -8.811  16.495  67.828  0.00  0.00    +0.007 C 
ATOM      4  C   UNL     1      -7.300  16.812  68.350  0.00  0.00    +0.022 C 
ATOM      5  C   UNL     1      -7.289  18.283  68.358  0.00  0.00    -0.048 C 
ATOM      6  C   UNL     1      -6.522  18.860  69.277  0.00  0.00    -0.035 C 
ATOM      7  C   UNL     1      -9.469  17.706  68.637  0.00  0.00    +0.034 C 
ATOM      8  C   UNL     1      -8.283  18.842  67.408  0.00  0.00    +0.022 C 
ATOM      9  C   UNL     1     -10.804  17.956  67.763  0.00  0.00    +0.156 C 
ATOM     10  O   UNL     1     -10.589  19.462  67.685  0.00  0.00    -0.223 OA
ENDROOT
BRANCH   1  12
ATOM     11  C   UNL     1     -10.753  15.505  65.129  0.00  0.00    +0.002 C 
ATOM     12  C   UNL     1     -10.505  16.151  66.256  0.00  0.00    -0.026 C 
BRANCH  11  13
ATOM     13  C   UNL     1     -11.981  14.453  65.269  0.00  0.00    +0.175 C 
ATOM     14  O   UNL     1     -12.481  14.821  63.885  0.00  0.00    -0.218 OA
BRANCH  13  15
ATOM     15  C   UNL     1     -11.102  13.065  64.769  0.00  0.00    +0.048 C 
ATOM     16  C   UNL     1     -12.330  12.265  64.082  0.00  0.00    +0.004 C 
BRANCH  15  17
ATOM     17  C   UNL     1     -11.301  12.326  66.186  0.00  0.00    +0.079 C 
BRANCH  17  20
ATOM     18  C   UNL     1      -8.140  12.962  67.166  0.00  0.00    +0.090 C 
ATOM     19  C   UNL     1      -8.887  12.691  67.035  0.00  0.00    -0.090 C 
ATOM     20  C   UNL     1      -9.985  12.246  66.808  0.00  0.00    -0.091 C 
ENDBRANCH  17  20
ENDBRANCH  15  17
ENDBRANCH  13  15
ENDBRANCH  11  13
ENDBRANCH   1  12
BRANCH   6  21
ATOM     21  C   UNL     1      -5.117  18.891  68.897  0.00  0.00    +0.026 C 
BRANCH  21  22
ATOM     22  C   UNL     1      -4.239  19.901  69.539  0.00  0.00    +0.016 C 
BRANCH  22  23
ATOM     23  C   UNL     1      -5.153  20.565  70.563  0.00  0.00    +0.114 C 
BRANCH  23  24
ATOM     24  C   UNL     1      -4.352  20.993  71.724  0.00  0.00    +0.365 C 
ATOM     25  O   UNL     1      -3.708  20.029  72.463  0.00  0.00    -0.246 OA
ATOM     26  O   UNL     1      -4.524  22.146  72.202  0.00  0.00    -0.246 OA
ENDBRANCH  23  24
ENDBRANCH  22  23
ENDBRANCH  21  22
ENDBRANCH   6  21
TORSDOF 9
ENDMDL
MODEL 5
REMARK VINA RESULT:      -6.8      2.279      2.703
REMARK  Name = 
REMARK  9 active torsions:
REMARK  status: ('A' for Active; 'I' for Inactive)
REMARK    1  A    between atoms: C_3  and  C_4
REMARK    2  A    between atoms: C_4  and  C_5
REMARK    3  A    between atoms: C_5  and  C_7
REMARK    4  A    between atoms: C_7  and  C_9
REMARK    5  A    between atoms: C_10  and  C_11
REMARK    6  A    between atoms: C_18  and  C_19
REMARK    7  A    between atoms: C_19  and  C_20
REMARK    8  A    between atoms: C_20  and  C_21
REMARK    9  A    between atoms: C_21  and  C_22
REMARK                            x       y       z     vdW  Elec       q    Type
REMARK                         _______ _______ _______ _____ _____    ______ ____
ROOT
ATOM      1  C   UNL     1     -10.099  17.889  66.601  0.00  0.00    +0.052 C 
ATOM      2  C   UNL     1      -8.534  18.108  67.134  0.00  0.00    +0.011 C 
ATOM      3  C   UNL     1      -8.988  18.842  68.570  0.00  0.00    +0.007 C 
ATOM      4  C   UNL     1      -7.487  19.460  68.714  0.00  0.00    +0.022 C 
ATOM      5  C   UNL     1      -7.299  20.098  67.402  0.00  0.00    -0.048 C 
ATOM      6  C   UNL     1      -6.529  21.180  67.380  0.00  0.00    -0.035 C 
ATOM      7  C   UNL     1      -9.546  20.088  67.738  0.00  0.00    +0.034 C 
ATOM      8  C   UNL     1      -8.155  19.473  66.362  0.00  0.00    +0.022 C 
ATOM      9  C   UNL     1     -10.781  19.397  66.961  0.00  0.00    +0.156 C 
ATOM     10  O   UNL     1     -10.382  19.974  65.610  0.00  0.00    -0.223 OA
ENDROOT
BRANCH   1  12
ATOM     11  C   UNL     1     -10.677  15.949  68.104  0.00  0.00    +0.002 C 
ATOM     12  C   UNL     1     -10.606  17.263  67.979  0.00  0.00    -0.026 C 
BRANCH  11  13
ATOM     13  C   UNL     1     -12.024  15.466  68.871  0.00  0.00    +0.175 C 
ATOM     14  O   UNL     1     -12.001  14.146  68.122  0.00  0.00    -0.218 OA
BRANCH  13  15
ATOM     15  C   UNL     1     -11.240  14.875  70.281  0.00  0.00    +0.048 C 
ATOM     16  C   UNL     1     -12.350  13.777  70.703  0.00  0.00    +0.004 C 
BRANCH  15  17
ATOM     17  C   UNL     1     -11.885  16.015  71.218  0.00  0.00    +0.079 C 
BRANCH  17  20
ATOM     18  C   UNL     1     -12.471  15.568  74.506  0.00  0.00    +0.090 C 
ATOM     19  C   UNL     1     -12.288  15.522  73.722  0.00  0.00    -0.090 C 
ATOM     20  C   UNL     1     -11.961  15.460  72.563  0.00  0.00    -0.091 C 
ENDBRANCH  17  20
ENDBRANCH  15  17
ENDBRANCH  13  15
ENDBRANCH  11  13
ENDBRANCH   1  12
BRANCH   6  21
ATOM     21  C   UNL     1      -5.109  20.859  67.383  0.00  0.00    +0.026 C 
BRANCH  21  22
ATOM     22  C   UNL     1      -4.447  20.592  66.082  0.00  0.00    +0.016 C 
BRANCH  22  23
ATOM     23  C   UNL     1      -3.929  19.166  66.234  0.00  0.00    +0.114 C 
BRANCH  23  24
ATOM     24  C   UNL     1      -4.742  18.262  65.401  0.00  0.00    +0.365 C 
ATOM     25  O   UNL     1      -5.130  17.055  65.934  0.00  0.00    -0.246 OA
ATOM     26  O   UNL     1      -4.793  18.448  64.156  0.00  0.00    -0.246 OA
ENDBRANCH  23  24
ENDBRANCH  22  23
ENDBRANCH  21  22
ENDBRANCH   6  21
TORSDOF 9
ENDMDL
MODEL 6
REMARK VINA RESULT:      -6.7      2.913      8.353
REMARK  Name = 
REMARK  9 active torsions:
REMARK  status: ('A' for Active; 'I' for Inactive)
REMARK    1  A    between atoms: C_3  and  C_4
REMARK    2  A    between atoms: C_4  and  C_5
REMARK    3  A    between atoms: C_5  and  C_7
REMARK    4  A    between atoms: C_7  and  C_9
REMARK    5  A    between atoms: C_10  and  C_11
REMARK    6  A    between atoms: C_18  and  C_19
REMARK    7  A    between atoms: C_19  and  C_20
REMARK    8  A    between atoms: C_20  and  C_21
REMARK    9  A    between atoms: C_21  and  C_22
REMARK                            x       y       z     vdW  Elec       q    Type
REMARK                         _______ _______ _______ _____ _____    ______ ____
ROOT
ATOM      1  C   UNL     1      -8.923  19.193  68.741  0.00  0.00    +0.052 C 
ATOM      2  C   UNL     1      -8.633  17.628  68.243  0.00  0.00    +0.011 C 
ATOM      3  C   UNL     1      -7.855  18.083  66.831  0.00  0.00    +0.007 C 
ATOM      4  C   UNL     1      -8.111  16.592  66.225  0.00  0.00    +0.022 C 
ATOM      5  C   UNL     1      -9.557  16.427  66.438  0.00  0.00    -0.048 C 
ATOM      6  C   UNL     1     -10.200  15.676  65.550  0.00  0.00    -0.035 C 
ATOM      7  C   UNL     1      -9.236  18.671  66.278  0.00  0.00    +0.034 C 
ATOM      8  C   UNL     1     -10.047  17.280  67.550  0.00  0.00    +0.022 C 
ATOM      9  C   UNL     1      -9.465  19.900  67.300  0.00  0.00    +0.156 C 
ATOM     10  O   UNL     1     -10.913  19.522  67.583  0.00  0.00    -0.223 OA
ENDROOT
BRANCH   1  12
ATOM     11  C   UNL     1      -6.523  19.528  69.441  0.00  0.00    +0.002 C 
ATOM     12  C   UNL     1      -7.423  19.677  68.484  0.00  0.00    -0.026 C 
BRANCH  11  13
ATOM     13  C   UNL     1      -5.552  20.820  69.593  0.00  0.00    +0.175 C 
ATOM     14  O   UNL     1      -5.671  20.757  71.104  0.00  0.00    -0.218 OA
BRANCH  13  15
ATOM     15  C   UNL     1      -4.070  19.957  69.502  0.00  0.00    +0.048 C 
ATOM     16  C   UNL     1      -3.094  21.147  70.000  0.00  0.00    +0.004 C 
BRANCH  15  17
ATOM     17  C   UNL     1      -3.859  20.317  67.947  0.00  0.00    +0.079 C 
BRANCH  17  20
ATOM     18  C   UNL     1      -4.292  17.215  66.703  0.00  0.00    +0.090 C 
ATOM     19  C   UNL     1      -4.062  17.961  66.905  0.00  0.00    -0.090 C 
ATOM     20  C   UNL     1      -3.681  19.055  67.242  0.00  0.00    -0.091 C 
ENDBRANCH  17  20
ENDBRANCH  15  17
ENDBRANCH  13  15
ENDBRANCH  11  13
ENDBRANCH   1  12
BRANCH   6  21
ATOM     21  C   UNL     1     -10.040  14.251  65.798  0.00  0.00    +0.026 C 
BRANCH  21  22
ATOM     22  C   UNL     1     -11.138  13.533  66.491  0.00  0.00    +0.016 C 
BRANCH  22  23
ATOM     23  C   UNL     1     -12.395  14.064  65.810  0.00  0.00    +0.114 C 
BRANCH  23  24
ATOM     24  C   UNL     1     -12.627  13.313  64.563  0.00  0.00    +0.365 C 
ATOM     25  O   UNL     1     -12.572  13.995  63.371  0.00  0.00    -0.246 OA
ATOM     26  O   UNL     1     -13.172  12.179  64.618  0.00  0.00    -0.246 OA
ENDBRANCH  23  24
ENDBRANCH  22  23
ENDBRANCH  21  22
ENDBRANCH   6  21
TORSDOF 9
ENDMDL
MODEL 7
REMARK VINA RESULT:      -6.7      3.031      5.465
REMARK  Name = 
REMARK  9 active torsions:
REMARK  status: ('A' for Active; 'I' for Inactive)
REMARK    1  A    between atoms: C_3  and  C_4
REMARK    2  A    between atoms: C_4  and  C_5
REMARK    3  A    between atoms: C_5  and  C_7
REMARK    4  A    between atoms: C_7  and  C_9
REMARK    5  A    between atoms: C_10  and  C_11
REMARK    6  A    between atoms: C_18  and  C_19
REMARK    7  A    between atoms: C_19  and  C_20
REMARK    8  A    between atoms: C_20  and  C_21
REMARK    9  A    between atoms: C_21  and  C_22
REMARK                            x       y       z     vdW  Elec       q    Type
REMARK                         _______ _______ _______ _____ _____    ______ ____
ROOT
ATOM      1  C   UNL     1     -10.326  12.429  67.167  0.00  0.00    +0.052 C 
ATOM      2  C   UNL     1     -10.055  13.715  68.194  0.00  0.00    +0.011 C 
ATOM      3  C   UNL     1     -11.668  13.887  68.614  0.00  0.00    +0.007 C 
ATOM      4  C   UNL     1     -11.359  15.401  69.130  0.00  0.00    +0.022 C 
ATOM      5  C   UNL     1     -10.670  15.979  67.965  0.00  0.00    -0.048 C 
ATOM      6  C   UNL     1     -10.837  17.283  67.770  0.00  0.00    -0.035 C 
ATOM      7  C   UNL     1     -11.994  14.340  67.115  0.00  0.00    +0.034 C 
ATOM      8  C   UNL     1     -10.029  14.930  67.133  0.00  0.00    +0.022 C 
ATOM      9  C   UNL     1     -11.689  12.969  66.318  0.00  0.00    +0.156 C 
ATOM     10  O   UNL     1     -10.838  13.659  65.260  0.00  0.00    -0.223 OA
ENDROOT
BRANCH   1  12
ATOM     11  C   UNL     1     -10.640  11.029  69.241  0.00  0.00    +0.002 C 
ATOM     12  C   UNL     1     -11.223  11.628  68.216  0.00  0.00    -0.026 C 
BRANCH  11  13
ATOM     13  C   UNL     1     -11.253   9.556  69.537  0.00  0.00    +0.175 C 
ATOM     14  O   UNL     1      -9.857   8.975  69.657  0.00  0.00    -0.218 OA
BRANCH  13  15
ATOM     15  C   UNL     1     -11.489   9.783  71.224  0.00  0.00    +0.048 C 
ATOM     16  C   UNL     1     -11.882   8.258  71.596  0.00  0.00    +0.004 C 
BRANCH  15  17
ATOM     17  C   UNL     1     -13.026  10.224  71.034  0.00  0.00    +0.079 C 
BRANCH  17  20
ATOM     18  C   UNL     1     -13.353  13.418  72.059  0.00  0.00    +0.090 C 
ATOM     19  C   UNL     1     -13.321  12.618  71.961  0.00  0.00    -0.090 C 
ATOM     20  C   UNL     1     -13.223  11.422  71.839  0.00  0.00    -0.091 C 
ENDBRANCH  17  20
ENDBRANCH  15  17
ENDBRANCH  13  15
ENDBRANCH  11  13
ENDBRANCH   1  12
BRANCH   6  21
ATOM     21  C   UNL     1      -9.985  18.093  68.627  0.00  0.00    +0.026 C 
BRANCH  21  22
ATOM     22  C   UNL     1      -9.857  19.540  68.323  0.00  0.00    +0.016 C 
BRANCH  22  23
ATOM     23  C   UNL     1      -9.616  19.566  66.817  0.00  0.00    +0.114 C 
BRANCH  23  24
ATOM     24  C   UNL     1      -8.165  19.605  66.558  0.00  0.00    +0.365 C 
ATOM     25  O   UNL     1      -7.434  20.639  67.095  0.00  0.00    -0.246 OA
ATOM     26  O   UNL     1      -7.686  18.911  65.622  0.00  0.00    -0.246 OA
ENDBRANCH  23  24
ENDBRANCH  22  23
ENDBRANCH  21  22
ENDBRANCH   6  21
TORSDOF 9
ENDMDL
MODEL 8
REMARK VINA RESULT:      -6.6      2.440      7.669
REMARK  Name = 
REMARK  9 active torsions:
REMARK  status: ('A' for Active; 'I' for Inactive)
REMARK    1  A    between atoms: C_3  and  C_4
REMARK    2  A    between atoms: C_4  and  C_5
REMARK    3  A    between atoms: C_5  and  C_7
REMARK    4  A    between atoms: C_7  and  C_9
REMARK    5  A    between atoms: C_10  and  C_11
REMARK    6  A    between atoms: C_18  and  C_19
REMARK    7  A    between atoms: C_19  and  C_20
REMARK    8  A    between atoms: C_20  and  C_21
REMARK    9  A    between atoms: C_21  and  C_22
REMARK                            x       y       z     vdW  Elec       q    Type
REMARK                         _______ _______ _______ _____ _____    ______ ____
ROOT
ATOM      1  C   UNL     1      -9.912  16.353  66.675  0.00  0.00    +0.052 C 
ATOM      2  C   UNL     1     -10.899  16.595  67.997  0.00  0.00    +0.011 C 
ATOM      3  C   UNL     1      -9.713  16.212  69.116  0.00  0.00    +0.007 C 
ATOM      4  C   UNL     1     -10.869  15.959  70.236  0.00  0.00    +0.022 C 
ATOM      5  C   UNL     1     -11.770  15.033  69.532  0.00  0.00    -0.048 C 
ATOM      6  C   UNL     1     -12.420  14.156  70.289  0.00  0.00    -0.035 C 
ATOM      7  C   UNL     1      -9.728  14.701  68.592  0.00  0.00    +0.034 C 
ATOM      8  C   UNL     1     -11.653  15.171  68.059  0.00  0.00    +0.022 C 
ATOM      9  C   UNL     1      -9.149  14.901  67.097  0.00  0.00    +0.156 C 
ATOM     10  O   UNL     1     -10.246  14.062  66.456  0.00  0.00    -0.223 OA
ENDROOT
BRANCH   1  12
ATOM     11  C   UNL     1      -8.622  18.503  66.942  0.00  0.00    +0.002 C 
ATOM     12  C   UNL     1      -8.710  17.224  67.264  0.00  0.00    -0.026 C 
BRANCH  11  13
ATOM     13  C   UNL     1      -7.099  18.964  66.622  0.00  0.00    +0.175 C 
ATOM     14  O   UNL     1      -7.550  19.639  65.340  0.00  0.00    -0.218 OA
BRANCH  13  15
ATOM     15  C   UNL     1      -7.124  20.388  67.582  0.00  0.00    +0.048 C 
ATOM     16  C   UNL     1      -5.784  21.074  66.990  0.00  0.00    +0.004 C 
BRANCH  15  17
ATOM     17  C   UNL     1      -6.332  19.684  68.795  0.00  0.00    +0.079 C 
BRANCH  17  20
ATOM     18  C   UNL     1      -4.257  21.367  70.850  0.00  0.00    +0.090 C 
ATOM     19  C   UNL     1      -4.757  21.100  70.276  0.00  0.00    -0.090 C 
ATOM     20  C   UNL     1      -5.545  20.725  69.444  0.00  0.00    -0.091 C 
ENDBRANCH  17  20
ENDBRANCH  15  17
ENDBRANCH  13  15
ENDBRANCH  11  13
ENDBRANCH   1  12
BRANCH   6  21
ATOM     21  C   UNL     1     -13.587  14.733  70.941  0.00  0.00    +0.026 C 
BRANCH  21  22
ATOM     22  C   UNL     1     -13.794  14.453  72.384  0.00  0.00    +0.016 C 
BRANCH  22  23
ATOM     23  C   UNL     1     -13.740  15.836  73.025  0.00  0.00    +0.114 C 
BRANCH  23  24
ATOM     24  C   UNL     1     -12.621  15.884  73.983  0.00  0.00    +0.365 C 
ATOM     25  O   UNL     1     -12.068  14.697  74.400  0.00  0.00    -0.246 OA
ATOM     26  O   UNL     1     -12.408  16.943  74.631  0.00  0.00    -0.246 OA
ENDBRANCH  23  24
ENDBRANCH  22  23
ENDBRANCH  21  22
ENDBRANCH   6  21
TORSDOF 9
ENDMDL
MODEL 9
REMARK VINA RESULT:      -6.5      5.581      8.212
REMARK  Name = 
REMARK  9 active torsions:
REMARK  status: ('A' for Active; 'I' for Inactive)
REMARK    1  A    between atoms: C_3  and  C_4
REMARK    2  A    between atoms: C_4  and  C_5
REMARK    3  A    between atoms: C_5  and  C_7
REMARK    4  A    between atoms: C_7  and  C_9
REMARK    5  A    between atoms: C_10  and  C_11
REMARK    6  A    between atoms: C_18  and  C_19
REMARK    7  A    between atoms: C_19  and  C_20
REMARK    8  A    between atoms: C_20  and  C_21
REMARK    9  A    between atoms: C_21  and  C_22
REMARK                            x       y       z     vdW  Elec       q    Type
REMARK                         _______ _______ _______ _____ _____    ______ ____
ROOT
ATOM      1  C   UNL     1      -9.564  10.843  67.017  0.00  0.00    +0.052 C 
ATOM      2  C   UNL     1      -9.843  11.652  68.448  0.00  0.00    +0.011 C 
ATOM      3  C   UNL     1     -11.468  11.250  68.510  0.00  0.00    +0.007 C 
ATOM      4  C   UNL     1     -11.716  12.471  69.561  0.00  0.00    +0.022 C 
ATOM      5  C   UNL     1     -11.100  13.605  68.854  0.00  0.00    -0.048 C 
ATOM      6  C   UNL     1     -11.640  14.798  69.074  0.00  0.00    -0.035 C 
ATOM      7  C   UNL     1     -11.725  12.157  67.218  0.00  0.00    +0.034 C 
ATOM      8  C   UNL     1     -10.063  13.151  67.894  0.00  0.00    +0.022 C 
ATOM      9  C   UNL     1     -10.908  11.323  66.103  0.00  0.00    +0.156 C 
ATOM     10  O   UNL     1     -10.188  12.553  65.569  0.00  0.00    -0.223 OA
ENDROOT
BRANCH   1  12
ATOM     11  C   UNL     1      -9.585   8.566  68.099  0.00  0.00    +0.002 C 
ATOM     12  C   UNL     1     -10.292   9.505  67.495  0.00  0.00    -0.026 C 
BRANCH  11  13
ATOM     13  C   UNL     1      -9.973   7.071  67.598  0.00  0.00    +0.175 C 
ATOM     14  O   UNL     1      -8.548   6.834  67.135  0.00  0.00    -0.218 OA
BRANCH  13  15
ATOM     15  C   UNL     1      -9.787   6.304  69.124  0.00  0.00    +0.048 C 
ATOM     16  C   UNL     1      -9.796   4.773  68.600  0.00  0.00    +0.004 C 
BRANCH  15  17
ATOM     17  C   UNL     1     -11.370   6.306  69.412  0.00  0.00    +0.079 C 
BRANCH  17  20
ATOM     18  C   UNL     1     -11.537   8.843  71.624  0.00  0.00    +0.090 C 
ATOM     19  C   UNL     1     -11.571   8.153  71.208  0.00  0.00    -0.090 C 
ATOM     20  C   UNL     1     -11.579   7.104  70.613  0.00  0.00    -0.091 C 
ENDBRANCH  17  20
ENDBRANCH  15  17
ENDBRANCH  13  15
ENDBRANCH  11  13
ENDBRANCH   1  12
BRANCH   6  21
ATOM     21  C   UNL     1     -11.200  15.392  70.328  0.00  0.00    +0.026 C 
BRANCH  21  22
ATOM     22  C   UNL     1     -12.227  15.979  71.224  0.00  0.00    +0.016 C 
BRANCH  22  23
ATOM     23  C   UNL     1     -11.892  15.382  72.587  0.00  0.00    +0.114 C 
BRANCH  23  24
ATOM     24  C   UNL     1     -12.886  15.836  73.575  0.00  0.00    +0.365 C 
ATOM     25  O   UNL     1     -14.110  16.266  73.119  0.00  0.00    -0.246 OA
ATOM     26  O   UNL     1     -12.510  16.124  74.743  0.00  0.00    -0.246 OA
ENDBRANCH  23  24
ENDBRANCH  22  23
ENDBRANCH  21  22
ENDBRANCH   6  21
TORSDOF 9
ENDMDL
