MODEL 1
REMARK VINA RESULT:      -8.2      0.000      0.000
REMARK  Name = 
REMARK  5 active torsions:
REMARK  status: ('A' for Active; 'I' for Inactive)
REMARK    1  A    between atoms: C_3  and  C_5
REMARK    2  A    between atoms: C_8  and  N_9
REMARK    3  A    between atoms: N_12  and  C_13
REMARK    4  A    between atoms: C_16  and  C_17
REMARK    5  A    between atoms: C_19  and  C_20
REMARK                            x       y       z     vdW  Elec       q    Type
REMARK                         _______ _______ _______ _____ _____    ______ ____
ROOT
ATOM      1  N   UNL     1     -10.543  12.778  66.899  0.00  0.00    -0.265 N 
ATOM      2  C   UNL     1     -10.007  11.431  66.730  0.00  0.00    +0.133 C 
ATOM      3  C   UNL     1     -10.173  11.079  65.279  0.00  0.00    +0.030 C 
ATOM      4  C   UNL     1      -8.575  11.366  67.186  0.00  0.00    +0.030 C 
ATOM      5  C   UNL     1     -10.876  10.653  67.632  0.00  0.00    +0.251 C 
ATOM      6  O   UNL     1     -11.100   9.424  67.550  0.00  0.00    -0.272 OA
ATOM      7  N   UNL     1     -11.086  11.496  68.771  0.00  0.00    -0.218 N 
ATOM      8  C   UNL     1     -10.985  12.829  68.259  0.00  0.00    +0.152 C 
ATOM      9  S   UNL     1     -11.145  14.190  69.163  0.00  0.00    -0.017 S 
ENDROOT
BRANCH   1  14
ATOM     10  C   UNL     1     -10.021  16.660  65.740  0.00  0.00    +0.083 A 
ATOM     11  C   UNL     1      -8.882  15.955  66.112  0.00  0.00    +0.146 A 
ATOM     12  F   UNL     1      -7.863  16.643  66.700  0.00  0.00    -0.204 F 
ATOM     13  C   UNL     1      -8.956  14.586  66.354  0.00  0.00    +0.045 A 
ATOM     14  C   UNL     1     -10.106  13.859  66.066  0.00  0.00    +0.055 A 
ATOM     15  C   UNL     1     -10.979  14.507  65.196  0.00  0.00    +0.015 A 
ATOM     16  C   UNL     1     -11.011  15.895  65.135  0.00  0.00    +0.008 A 
BRANCH  10  19
ATOM     17  C   UNL     1      -9.950  19.438  68.336  0.00  0.00    +0.139 C 
ATOM     18  N   UNL     1     -10.201  18.156  67.729  0.00  0.00    -0.200 NA
ATOM     19  C   UNL     1     -10.346  17.969  66.321  0.00  0.00    +0.267 C 
ATOM     20  O   UNL     1     -10.308  19.030  65.634  0.00  0.00    -0.268 OA
ENDBRANCH  10  19
ENDBRANCH   1  14
BRANCH   7  21
ATOM     21  C   UNL     1     -11.389  11.077  70.106  0.00  0.00    +0.060 A 
ATOM     22  C   UNL     1     -10.984   9.848  70.592  0.00  0.00    +0.020 A 
ATOM     23  C   UNL     1     -11.826   9.130  71.429  0.00  0.00    +0.082 A 
ATOM     24  C   UNL     1     -13.022   9.656  71.904  0.00  0.00    +0.072 A 
ATOM     25  C   UNL     1     -13.266  10.996  71.633  0.00  0.00    +0.012 A 
ATOM     26  C   UNL     1     -12.471  11.685  70.726  0.00  0.00    +0.016 A 
BRANCH  23  27
ATOM     27  C   UNL     1     -11.427   7.724  71.750  0.00  0.00    +0.419 C 
ATOM     28  F   UNL     1     -12.170   6.822  71.011  0.00  0.00    -0.166 F 
ATOM     29  F   UNL     1     -10.106   7.551  71.352  0.00  0.00    -0.166 F 
ATOM     30  F   UNL     1     -11.469   7.469  73.100  0.00  0.00    -0.166 F 
ENDBRANCH  23  27
BRANCH  24  31
ATOM     31  C   UNL     1     -14.117   8.734  72.102  0.00  0.00    +0.100 C 
ATOM     32  N   UNL     1     -15.044   8.038  72.250  0.00  0.00    -0.191 NA
ENDBRANCH  24  31
ENDBRANCH   7  21
TORSDOF 5
ENDMDL
MODEL 2
REMARK VINA RESULT:      -7.9      3.370      9.171
REMARK  Name = 
REMARK  5 active torsions:
REMARK  status: ('A' for Active; 'I' for Inactive)
REMARK    1  A    between atoms: C_3  and  C_5
REMARK    2  A    between atoms: C_8  and  N_9
REMARK    3  A    between atoms: N_12  and  C_13
REMARK    4  A    between atoms: C_16  and  C_17
REMARK    5  A    between atoms: C_19  and  C_20
REMARK                            x       y       z     vdW  Elec       q    Type
REMARK                         _______ _______ _______ _____ _____    ______ ____
ROOT
ATOM      1  N   UNL     1     -10.377  12.931  65.770  0.00  0.00    -0.265 N 
ATOM      2  C   UNL     1     -11.399  13.899  65.386  0.00  0.00    +0.133 C 
ATOM      3  C   UNL     1     -12.050  13.367  64.140  0.00  0.00    +0.030 C 
ATOM      4  C   UNL     1     -12.377  14.116  66.508  0.00  0.00    +0.030 C 
ATOM      5  C   UNL     1     -10.588  15.110  65.161  0.00  0.00    +0.251 C 
ATOM      6  O   UNL     1     -10.912  16.082  64.441  0.00  0.00    -0.272 OA
ATOM      7  N   UNL     1      -9.587  15.087  66.184  0.00  0.00    -0.218 N 
ATOM      8  C   UNL     1      -9.390  13.697  66.468  0.00  0.00    +0.152 C 
ATOM      9  S   UNL     1      -8.337  13.113  67.584  0.00  0.00    -0.017 S 
ENDROOT
BRANCH   1  14
ATOM     10  C   UNL     1      -9.808   9.046  66.895  0.00  0.00    +0.083 A 
ATOM     11  C   UNL     1     -10.797   9.756  67.564  0.00  0.00    +0.146 A 
ATOM     12  F   UNL     1     -11.039   9.449  68.870  0.00  0.00    -0.204 F 
ATOM     13  C   UNL     1     -11.165  11.025  67.124  0.00  0.00    +0.045 A 
ATOM     14  C   UNL     1     -10.692  11.541  65.922  0.00  0.00    +0.055 A 
ATOM     15  C   UNL     1     -10.173  10.579  65.061  0.00  0.00    +0.015 A 
ATOM     16  C   UNL     1      -9.628   9.403  65.565  0.00  0.00    +0.008 A 
BRANCH  10  19
ATOM     17  C   UNL     1      -7.138   8.494  69.547  0.00  0.00    +0.139 C 
ATOM     18  N   UNL     1      -7.826   9.054  68.412  0.00  0.00    -0.200 NA
ATOM     19  C   UNL     1      -8.756   8.317  67.617  0.00  0.00    +0.267 C 
ATOM     20  O   UNL     1      -8.887   7.101  67.937  0.00  0.00    -0.268 OA
ENDBRANCH  10  19
ENDBRANCH   1  14
BRANCH   7  21
ATOM     21  C   UNL     1      -8.902  16.214  66.742  0.00  0.00    +0.060 A 
ATOM     22  C   UNL     1      -9.550  17.410  66.985  0.00  0.00    +0.020 A 
ATOM     23  C   UNL     1      -8.887  18.608  66.754  0.00  0.00    +0.082 A 
ATOM     24  C   UNL     1      -7.543  18.654  66.403  0.00  0.00    +0.072 A 
ATOM     25  C   UNL     1      -6.845  17.454  66.447  0.00  0.00    +0.012 A 
ATOM     26  C   UNL     1      -7.524  16.251  66.590  0.00  0.00    +0.016 A 
BRANCH  23  27
ATOM     27  C   UNL     1      -9.702  19.860  66.831  0.00  0.00    +0.419 C 
ATOM     28  F   UNL     1     -10.196  20.201  65.584  0.00  0.00    -0.166 F 
ATOM     29  F   UNL     1     -10.813  19.603  67.627  0.00  0.00    -0.166 F 
ATOM     30  F   UNL     1      -9.016  20.888  67.432  0.00  0.00    -0.166 F 
ENDBRANCH  23  27
BRANCH  24  31
ATOM     31  C   UNL     1      -7.129  19.715  65.513  0.00  0.00    +0.100 C 
ATOM     32  N   UNL     1      -6.740  20.537  64.780  0.00  0.00    -0.191 NA
ENDBRANCH  24  31
ENDBRANCH   7  21
TORSDOF 5
ENDMDL
MODEL 3
REMARK VINA RESULT:      -7.8      4.488      7.409
REMARK  Name = 
REMARK  5 active torsions:
REMARK  status: ('A' for Active; 'I' for Inactive)
REMARK    1  A    between atoms: C_3  and  C_5
REMARK    2  A    between atoms: C_8  and  N_9
REMARK    3  A    between atoms: N_12  and  C_13
REMARK    4  A    between atoms: C_16  and  C_17
REMARK    5  A    between atoms: C_19  and  C_20
REMARK                            x       y       z     vdW  Elec       q    Type
REMARK                         _______ _______ _______ _____ _____    ______ ____
ROOT
ATOM      1  N   UNL     1      -8.129  18.699  67.921  0.00  0.00    -0.265 N 
ATOM      2  C   UNL     1      -9.581  18.817  67.830  0.00  0.00    +0.133 C 
ATOM      3  C   UNL     1     -10.015  19.696  68.968  0.00  0.00    +0.030 C 
ATOM      4  C   UNL     1      -9.989  19.356  66.486  0.00  0.00    +0.030 C 
ATOM      5  C   UNL     1      -9.999  17.410  67.975  0.00  0.00    +0.251 C 
ATOM      6  O   UNL     1     -11.122  17.018  68.367  0.00  0.00    -0.272 OA
ATOM      7  N   UNL     1      -9.023  16.651  67.251  0.00  0.00    -0.218 N 
ATOM      8  C   UNL     1      -7.825  17.432  67.331  0.00  0.00    +0.152 C 
ATOM      9  S   UNL     1      -6.390  17.010  66.655  0.00  0.00    -0.017 S 
ENDROOT
BRANCH   1  14
ATOM     10  C   UNL     1      -4.694  20.893  67.651  0.00  0.00    +0.083 A 
ATOM     11  C   UNL     1      -5.701  21.185  66.739  0.00  0.00    +0.146 A 
ATOM     12  F   UNL     1      -5.339  21.617  65.498  0.00  0.00    -0.204 F 
ATOM     13  C   UNL     1      -6.958  20.602  66.875  0.00  0.00    +0.045 A 
ATOM     14  C   UNL     1      -7.295  19.862  68.004  0.00  0.00    +0.055 A 
ATOM     15  C   UNL     1      -6.458  20.081  69.093  0.00  0.00    +0.015 A 
ATOM     16  C   UNL     1      -5.138  20.473  68.899  0.00  0.00    +0.008 A 
BRANCH  10  19
ATOM     17  C   UNL     1      -1.943  19.254  65.599  0.00  0.00    +0.139 C 
ATOM     18  N   UNL     1      -3.042  19.404  66.518  0.00  0.00    -0.200 NA
ATOM     19  C   UNL     1      -3.316  20.616  67.222  0.00  0.00    +0.267 C 
ATOM     20  O   UNL     1      -2.477  21.544  67.036  0.00  0.00    -0.268 OA
ENDBRANCH  10  19
ENDBRANCH   1  14
BRANCH   7  21
ATOM     21  C   UNL     1      -9.210  15.369  66.643  0.00  0.00    +0.060 A 
ATOM     22  C   UNL     1     -10.299  15.098  65.837  0.00  0.00    +0.020 A 
ATOM     23  C   UNL     1     -10.906  13.851  65.900  0.00  0.00    +0.082 A 
ATOM     24  C   UNL     1     -10.381  12.811  66.657  0.00  0.00    +0.072 A 
ATOM     25  C   UNL     1      -9.132  13.021  67.227  0.00  0.00    +0.012 A 
ATOM     26  C   UNL     1      -8.571  14.291  67.238  0.00  0.00    +0.016 A 
BRANCH  23  27
ATOM     27  C   UNL     1     -12.200  13.689  65.167  0.00  0.00    +0.419 C 
ATOM     28  F   UNL     1     -13.256  14.157  65.926  0.00  0.00    -0.166 F 
ATOM     29  F   UNL     1     -12.156  14.491  64.032  0.00  0.00    -0.166 F 
ATOM     30  F   UNL     1     -12.389  12.399  64.730  0.00  0.00    -0.166 F 
ENDBRANCH  23  27
BRANCH  24  31
ATOM     31  C   UNL     1     -11.321  11.894  67.262  0.00  0.00    +0.100 C 
ATOM     32  N   UNL     1     -12.030  11.118  67.772  0.00  0.00    -0.191 NA
ENDBRANCH  24  31
ENDBRANCH   7  21
TORSDOF 5
ENDMDL
MODEL 4
REMARK VINA RESULT:      -7.3      3.415      8.631
REMARK  Name = 
REMARK  5 active torsions:
REMARK  status: ('A' for Active; 'I' for Inactive)
REMARK    1  A    between atoms: C_3  and  C_5
REMARK    2  A    between atoms: C_8  and  N_9
REMARK    3  A    between atoms: N_12  and  C_13
REMARK    4  A    between atoms: C_16  and  C_17
REMARK    5  A    between atoms: C_19  and  C_20
REMARK                            x       y       z     vdW  Elec       q    Type
REMARK                         _______ _______ _______ _____ _____    ______ ____
ROOT
ATOM      1  N   UNL     1     -10.553  13.363  65.428  0.00  0.00    -0.265 N 
ATOM      2  C   UNL     1     -11.688  14.179  65.008  0.00  0.00    +0.133 C 
ATOM      3  C   UNL     1     -12.237  13.546  63.762  0.00  0.00    +0.030 C 
ATOM      4  C   UNL     1     -12.708  14.282  66.109  0.00  0.00    +0.030 C 
ATOM      5  C   UNL     1     -11.041  15.483  64.774  0.00  0.00    +0.251 C 
ATOM      6  O   UNL     1     -11.477  16.392  64.031  0.00  0.00    -0.272 OA
ATOM      7  N   UNL     1     -10.065  15.611  65.815  0.00  0.00    -0.218 N 
ATOM      8  C   UNL     1      -9.691  14.265  66.128  0.00  0.00    +0.152 C 
ATOM      9  S   UNL     1      -8.592  13.844  67.273  0.00  0.00    -0.017 S 
ENDROOT
BRANCH   1  14
ATOM     10  C   UNL     1      -9.647   9.649  66.867  0.00  0.00    +0.083 A 
ATOM     11  C   UNL     1     -10.841  10.216  67.296  0.00  0.00    +0.146 A 
ATOM     12  F   UNL     1     -11.282   9.914  68.550  0.00  0.00    -0.204 F 
ATOM     13  C   UNL     1     -11.299  11.398  66.721  0.00  0.00    +0.045 A 
ATOM     14  C   UNL     1     -10.683  11.946  65.600  0.00  0.00    +0.055 A 
ATOM     15  C   UNL     1      -9.872  11.051  64.909  0.00  0.00    +0.015 A 
ATOM     16  C   UNL     1      -9.268   9.990  65.574  0.00  0.00    +0.008 A 
BRANCH  10  19
ATOM     17  C   UNL     1      -7.416   9.644  69.946  0.00  0.00    +0.139 C 
ATOM     18  N   UNL     1      -7.959  10.021  68.667  0.00  0.00    -0.200 NA
ATOM     19  C   UNL     1      -8.658   9.115  67.813  0.00  0.00    +0.267 C 
ATOM     20  O   UNL     1      -8.710   7.921  68.228  0.00  0.00    -0.268 OA
ENDBRANCH  10  19
ENDBRANCH   1  14
BRANCH   7  21
ATOM     21  C   UNL     1      -9.548  16.828  66.363  0.00  0.00    +0.060 A 
ATOM     22  C   UNL     1      -8.374  17.392  65.902  0.00  0.00    +0.020 A 
ATOM     23  C   UNL     1      -7.501  17.992  66.800  0.00  0.00    +0.082 A 
ATOM     24  C   UNL     1      -7.823  18.161  68.142  0.00  0.00    +0.072 A 
ATOM     25  C   UNL     1      -9.122  17.846  68.518  0.00  0.00    +0.012 A 
ATOM     26  C   UNL     1      -9.960  17.166  67.644  0.00  0.00    +0.016 A 
BRANCH  23  27
ATOM     27  C   UNL     1      -6.159  18.393  66.277  0.00  0.00    +0.419 C 
ATOM     28  F   UNL     1      -5.221  17.406  66.523  0.00  0.00    -0.166 F 
ATOM     29  F   UNL     1      -6.250  18.501  64.894  0.00  0.00    -0.166 F 
ATOM     30  F   UNL     1      -5.769  19.626  66.743  0.00  0.00    -0.166 F 
ENDBRANCH  23  27
BRANCH  24  31
ATOM     31  C   UNL     1      -6.739  18.078  69.096  0.00  0.00    +0.100 C 
ATOM     32  N   UNL     1      -5.838  17.963  69.830  0.00  0.00    -0.191 NA
ENDBRANCH  24  31
ENDBRANCH   7  21
TORSDOF 5
ENDMDL
MODEL 5
REMARK VINA RESULT:      -7.3      1.908      2.288
REMARK  Name = 
REMARK  5 active torsions:
REMARK  status: ('A' for Active; 'I' for Inactive)
REMARK    1  A    between atoms: C_3  and  C_5
REMARK    2  A    between atoms: C_8  and  N_9
REMARK    3  A    between atoms: N_12  and  C_13
REMARK    4  A    between atoms: C_16  and  C_17
REMARK    5  A    between atoms: C_19  and  C_20
REMARK                            x       y       z     vdW  Elec       q    Type
REMARK                         _______ _______ _______ _____ _____    ______ ____
ROOT
ATOM      1  N   UNL     1     -10.850  11.437  67.496  0.00  0.00    -0.265 N 
ATOM      2  C   UNL     1      -9.998  10.268  67.304  0.00  0.00    +0.133 C 
ATOM      3  C   UNL     1     -10.135   9.867  65.863  0.00  0.00    +0.030 C 
ATOM      4  C   UNL     1      -8.577  10.573  67.693  0.00  0.00    +0.030 C 
ATOM      5  C   UNL     1     -10.601   9.307  68.246  0.00  0.00    +0.251 C 
ATOM      6  O   UNL     1     -10.511   8.060  68.175  0.00  0.00    -0.272 OA
ATOM      7  N   UNL     1     -10.966  10.083  69.393  0.00  0.00    -0.218 N 
ATOM      8  C   UNL     1     -11.229  11.393  68.876  0.00  0.00    +0.152 C 
ATOM      9  S   UNL     1     -11.687  12.681  69.785  0.00  0.00    -0.017 S 
ENDROOT
BRANCH   1  14
ATOM     10  C   UNL     1     -10.638  15.400  66.529  0.00  0.00    +0.083 A 
ATOM     11  C   UNL     1      -9.490  14.642  66.333  0.00  0.00    +0.146 A 
ATOM     12  F   UNL     1      -8.281  15.252  66.490  0.00  0.00    -0.204 F 
ATOM     13  C   UNL     1      -9.533  13.258  66.477  0.00  0.00    +0.045 A 
ATOM     14  C   UNL     1     -10.739  12.584  66.644  0.00  0.00    +0.055 A 
ATOM     15  C   UNL     1     -11.855  13.327  66.274  0.00  0.00    +0.015 A 
ATOM     16  C   UNL     1     -11.831  14.715  66.339  0.00  0.00    +0.008 A 
BRANCH  10  19
ATOM     17  C   UNL     1     -10.675  19.168  67.047  0.00  0.00    +0.139 C 
ATOM     18  N   UNL     1     -10.236  17.862  66.628  0.00  0.00    -0.200 NA
ATOM     19  C   UNL     1     -10.616  16.656  67.292  0.00  0.00    +0.267 C 
ATOM     20  O   UNL     1     -11.318  16.816  68.332  0.00  0.00    -0.268 OA
ENDBRANCH  10  19
ENDBRANCH   1  14
BRANCH   7  21
ATOM     21  C   UNL     1     -11.093   9.618  70.741  0.00  0.00    +0.060 A 
ATOM     22  C   UNL     1     -10.000   9.184  71.466  0.00  0.00    +0.020 A 
ATOM     23  C   UNL     1     -10.130   8.098  72.321  0.00  0.00    +0.082 A 
ATOM     24  C   UNL     1     -11.360   7.500  72.574  0.00  0.00    +0.072 A 
ATOM     25  C   UNL     1     -12.481   8.136  72.058  0.00  0.00    +0.012 A 
ATOM     26  C   UNL     1     -12.343   9.164  71.135  0.00  0.00    +0.016 A 
BRANCH  23  27
ATOM     27  C   UNL     1      -8.873   7.545  72.913  0.00  0.00    +0.419 C 
ATOM     28  F   UNL     1      -8.419   6.464  72.179  0.00  0.00    -0.166 F 
ATOM     29  F   UNL     1      -7.886   8.519  72.814  0.00  0.00    -0.166 F 
ATOM     30  F   UNL     1      -9.012   7.260  74.251  0.00  0.00    -0.166 F 
ENDBRANCH  23  27
BRANCH  24  31
ATOM     31  C   UNL     1     -11.364   6.074  72.811  0.00  0.00    +0.100 C 
ATOM     32  N   UNL     1     -11.409   4.932  73.053  0.00  0.00    -0.191 NA
ENDBRANCH  24  31
ENDBRANCH   7  21
TORSDOF 5
ENDMDL
MODEL 6
REMARK VINA RESULT:      -7.3      4.500      9.957
REMARK  Name = 
REMARK  5 active torsions:
REMARK  status: ('A' for Active; 'I' for Inactive)
REMARK    1  A    between atoms: C_3  and  C_5
REMARK    2  A    between atoms: C_8  and  N_9
REMARK    3  A    between atoms: N_12  and  C_13
REMARK    4  A    between atoms: C_16  and  C_17
REMARK    5  A    between atoms: C_19  and  C_20
REMARK                            x       y       z     vdW  Elec       q    Type
REMARK                         _______ _______ _______ _____ _____    ______ ____
ROOT
ATOM      1  N   UNL     1      -9.009  17.268  67.201  0.00  0.00    -0.265 N 
ATOM      2  C   UNL     1      -9.097  18.709  67.411  0.00  0.00    +0.133 C 
ATOM      3  C   UNL     1      -9.843  19.272  66.235  0.00  0.00    +0.030 C 
ATOM      4  C   UNL     1      -9.762  19.018  68.725  0.00  0.00    +0.030 C 
ATOM      5  C   UNL     1      -7.673  19.089  67.447  0.00  0.00    +0.251 C 
ATOM      6  O   UNL     1      -7.213  20.227  67.199  0.00  0.00    -0.272 OA
ATOM      7  N   UNL     1      -7.018  18.027  68.152  0.00  0.00    -0.218 N 
ATOM      8  C   UNL     1      -7.817  16.869  67.886  0.00  0.00    +0.152 C 
ATOM      9  S   UNL     1      -7.505  15.366  68.469  0.00  0.00    -0.017 S 
ENDROOT
BRANCH   1  14
ATOM     10  C   UNL     1     -11.295  13.896  66.902  0.00  0.00    +0.083 A 
ATOM     11  C   UNL     1     -11.645  14.809  67.890  0.00  0.00    +0.146 A 
ATOM     12  F   UNL     1     -12.195  14.330  69.042  0.00  0.00    -0.204 F 
ATOM     13  C   UNL     1     -11.024  16.053  67.944  0.00  0.00    +0.045 A 
ATOM     14  C   UNL     1     -10.179  16.486  66.927  0.00  0.00    +0.055 A 
ATOM     15  C   UNL     1     -10.318  15.777  65.738  0.00  0.00    +0.015 A 
ATOM     16  C   UNL     1     -10.755  14.457  65.752  0.00  0.00    +0.008 A 
BRANCH  10  19
ATOM     17  C   UNL     1     -10.028  10.890  68.856  0.00  0.00    +0.139 C 
ATOM     18  N   UNL     1     -10.020  12.095  68.068  0.00  0.00    -0.200 NA
ATOM     19  C   UNL     1     -11.090  12.472  67.200  0.00  0.00    +0.267 C 
ATOM     20  O   UNL     1     -12.030  11.631  67.113  0.00  0.00    -0.268 OA
ENDBRANCH  10  19
ENDBRANCH   1  14
BRANCH   7  21
ATOM     21  C   UNL     1      -5.801  18.115  68.900  0.00  0.00    +0.060 A 
ATOM     22  C   UNL     1      -5.710  18.871  70.053  0.00  0.00    +0.020 A 
ATOM     23  C   UNL     1      -4.547  19.583  70.316  0.00  0.00    +0.082 A 
ATOM     24  C   UNL     1      -3.413  19.467  69.521  0.00  0.00    +0.072 A 
ATOM     25  C   UNL     1      -3.436  18.485  68.540  0.00  0.00    +0.012 A 
ATOM     26  C   UNL     1      -4.624  17.839  68.221  0.00  0.00    +0.016 A 
BRANCH  23  27
ATOM     27  C   UNL     1      -4.585  20.544  71.462  0.00  0.00    +0.419 C 
ATOM     28  F   UNL     1      -3.446  20.428  72.238  0.00  0.00    -0.166 F 
ATOM     29  F   UNL     1      -4.567  21.834  70.943  0.00  0.00    -0.166 F 
ATOM     30  F   UNL     1      -5.743  20.431  72.195  0.00  0.00    -0.166 F 
ENDBRANCH  23  27
BRANCH  24  31
ATOM     31  C   UNL     1      -2.593  20.647  69.364  0.00  0.00    +0.100 C 
ATOM     32  N   UNL     1      -1.938  21.612  69.301  0.00  0.00    -0.191 NA
ENDBRANCH  24  31
ENDBRANCH   7  21
TORSDOF 5
ENDMDL
MODEL 7
REMARK VINA RESULT:      -7.3      3.308      9.099
REMARK  Name = 
REMARK  5 active torsions:
REMARK  status: ('A' for Active; 'I' for Inactive)
REMARK    1  A    between atoms: C_3  and  C_5
REMARK    2  A    between atoms: C_8  and  N_9
REMARK    3  A    between atoms: N_12  and  C_13
REMARK    4  A    between atoms: C_16  and  C_17
REMARK    5  A    between atoms: C_19  and  C_20
REMARK                            x       y       z     vdW  Elec       q    Type
REMARK                         _______ _______ _______ _____ _____    ______ ____
ROOT
ATOM      1  N   UNL     1     -10.528   9.574  70.436  0.00  0.00    -0.265 N 
ATOM      2  C   UNL     1      -9.782   9.445  69.188  0.00  0.00    +0.133 C 
ATOM      3  C   UNL     1      -8.462   8.820  69.537  0.00  0.00    +0.030 C 
ATOM      4  C   UNL     1     -10.561   8.642  68.182  0.00  0.00    +0.030 C 
ATOM      5  C   UNL     1      -9.678  10.853  68.762  0.00  0.00    +0.251 C 
ATOM      6  O   UNL     1      -8.807  11.320  67.993  0.00  0.00    -0.272 OA
ATOM      7  N   UNL     1     -10.937  11.444  69.102  0.00  0.00    -0.218 N 
ATOM      8  C   UNL     1     -11.397  10.693  70.231  0.00  0.00    +0.152 C 
ATOM      9  S   UNL     1     -12.813  10.962  71.017  0.00  0.00    -0.017 S 
ENDROOT
BRANCH   1  14
ATOM     10  C   UNL     1     -10.042   5.761  71.817  0.00  0.00    +0.083 A 
ATOM     11  C   UNL     1      -9.513   6.785  72.595  0.00  0.00    +0.146 A 
ATOM     12  F   UNL     1      -8.386   6.527  73.316  0.00  0.00    -0.204 F 
ATOM     13  C   UNL     1      -9.785   8.113  72.280  0.00  0.00    +0.045 A 
ATOM     14  C   UNL     1     -10.718   8.451  71.305  0.00  0.00    +0.055 A 
ATOM     15  C   UNL     1     -11.591   7.418  70.979  0.00  0.00    +0.015 A 
ATOM     16  C   UNL     1     -11.198   6.092  71.122  0.00  0.00    +0.008 A 
BRANCH  10  19
ATOM     17  C   UNL     1      -9.392   2.202  70.644  0.00  0.00    +0.139 C 
ATOM     18  N   UNL     1      -9.812   3.299  71.478  0.00  0.00    -0.200 NA
ATOM     19  C   UNL     1      -9.235   4.603  71.408  0.00  0.00    +0.267 C 
ATOM     20  O   UNL     1      -8.267   4.717  70.602  0.00  0.00    -0.268 OA
ENDBRANCH  10  19
ENDBRANCH   1  14
BRANCH   7  21
ATOM     21  C   UNL     1     -11.553  12.574  68.476  0.00  0.00    +0.060 A 
ATOM     22  C   UNL     1     -11.923  12.556  67.144  0.00  0.00    +0.020 A 
ATOM     23  C   UNL     1     -11.759  13.698  66.371  0.00  0.00    +0.082 A 
ATOM     24  C   UNL     1     -11.352  14.909  66.919  0.00  0.00    +0.072 A 
ATOM     25  C   UNL     1     -11.266  14.972  68.303  0.00  0.00    +0.012 A 
ATOM     26  C   UNL     1     -11.341  13.812  69.064  0.00  0.00    +0.016 A 
BRANCH  23  27
ATOM     27  C   UNL     1     -11.976  13.557  64.898  0.00  0.00    +0.419 C 
ATOM     28  F   UNL     1     -10.788  13.258  64.254  0.00  0.00    -0.166 F 
ATOM     29  F   UNL     1     -12.812  12.466  64.688  0.00  0.00    -0.166 F 
ATOM     30  F   UNL     1     -12.612  14.650  64.361  0.00  0.00    -0.166 F 
ENDBRANCH  23  27
BRANCH  24  31
ATOM     31  C   UNL     1     -10.534  15.766  66.090  0.00  0.00    +0.100 C 
ATOM     32  N   UNL     1      -9.922  16.459  65.376  0.00  0.00    -0.191 NA
ENDBRANCH  24  31
ENDBRANCH   7  21
TORSDOF 5
ENDMDL
MODEL 8
REMARK VINA RESULT:      -7.2      2.440      3.563
REMARK  Name = 
REMARK  5 active torsions:
REMARK  status: ('A' for Active; 'I' for Inactive)
REMARK    1  A    between atoms: C_3  and  C_5
REMARK    2  A    between atoms: C_8  and  N_9
REMARK    3  A    between atoms: N_12  and  C_13
REMARK    4  A    between atoms: C_16  and  C_17
REMARK    5  A    between atoms: C_19  and  C_20
REMARK                            x       y       z     vdW  Elec       q    Type
REMARK                         _______ _______ _______ _____ _____    ______ ____
ROOT
ATOM      1  N   UNL     1     -10.874  14.818  66.451  0.00  0.00    -0.265 N 
ATOM      2  C   UNL     1     -11.332  14.153  65.236  0.00  0.00    +0.133 C 
ATOM      3  C   UNL     1     -12.168  15.150  64.486  0.00  0.00    +0.030 C 
ATOM      4  C   UNL     1     -10.165  13.646  64.432  0.00  0.00    +0.030 C 
ATOM      5  C   UNL     1     -12.108  13.028  65.792  0.00  0.00    +0.251 C 
ATOM      6  O   UNL     1     -13.022  12.409  65.201  0.00  0.00    -0.272 OA
ATOM      7  N   UNL     1     -11.367  12.591  66.937  0.00  0.00    -0.218 N 
ATOM      8  C   UNL     1     -10.690  13.764  67.400  0.00  0.00    +0.152 C 
ATOM      9  S   UNL     1      -9.690  13.811  68.702  0.00  0.00    -0.017 S 
ENDROOT
BRANCH   1  14
ATOM     10  C   UNL     1      -8.311  17.778  67.615  0.00  0.00    +0.083 A 
ATOM     11  C   UNL     1      -8.013  17.118  66.428  0.00  0.00    +0.146 A 
ATOM     12  F   UNL     1      -6.702  16.971  66.086  0.00  0.00    -0.204 F 
ATOM     13  C   UNL     1      -8.924  16.220  65.881  0.00  0.00    +0.045 A 
ATOM     14  C   UNL     1     -10.210  16.088  66.395  0.00  0.00    +0.055 A 
ATOM     15  C   UNL     1     -10.609  17.153  67.197  0.00  0.00    +0.015 A 
ATOM     16  C   UNL     1      -9.666  17.904  67.890  0.00  0.00    +0.008 A 
BRANCH  10  19
ATOM     17  C   UNL     1      -5.606  16.667  70.046  0.00  0.00    +0.139 C 
ATOM     18  N   UNL     1      -6.890  16.770  69.402  0.00  0.00    -0.200 NA
ATOM     19  C   UNL     1      -7.318  17.930  68.687  0.00  0.00    +0.267 C 
ATOM     20  O   UNL     1      -6.511  18.903  68.715  0.00  0.00    -0.268 OA
ENDBRANCH  10  19
ENDBRANCH   1  14
BRANCH   7  21
ATOM     21  C   UNL     1     -11.368  11.279  67.511  0.00  0.00    +0.060 A 
ATOM     22  C   UNL     1     -12.096  10.983  68.647  0.00  0.00    +0.020 A 
ATOM     23  C   UNL     1     -11.564  10.123  69.598  0.00  0.00    +0.082 A 
ATOM     24  C   UNL     1     -10.370   9.441  69.393  0.00  0.00    +0.072 A 
ATOM     25  C   UNL     1      -9.807   9.535  68.127  0.00  0.00    +0.012 A 
ATOM     26  C   UNL     1     -10.288  10.461  67.212  0.00  0.00    +0.016 A 
BRANCH  23  27
ATOM     27  C   UNL     1     -12.299  10.008  70.896  0.00  0.00    +0.419 C 
ATOM     28  F   UNL     1     -12.015  11.083  71.718  0.00  0.00    -0.166 F 
ATOM     29  F   UNL     1     -13.662  10.079  70.627  0.00  0.00    -0.166 F 
ATOM     30  F   UNL     1     -12.082   8.797  71.508  0.00  0.00    -0.166 F 
ENDBRANCH  23  27
BRANCH  24  31
ATOM     31  C   UNL     1      -9.541   9.199  70.552  0.00  0.00    +0.100 C 
ATOM     32  N   UNL     1      -8.905   9.050  71.521  0.00  0.00    -0.191 NA
ENDBRANCH  24  31
ENDBRANCH   7  21
TORSDOF 5
ENDMDL
MODEL 9
REMARK VINA RESULT:      -7.2      3.001      4.472
REMARK  Name = 
REMARK  5 active torsions:
REMARK  status: ('A' for Active; 'I' for Inactive)
REMARK    1  A    between atoms: C_3  and  C_5
REMARK    2  A    between atoms: C_8  and  N_9
REMARK    3  A    between atoms: N_12  and  C_13
REMARK    4  A    between atoms: C_16  and  C_17
REMARK    5  A    between atoms: C_19  and  C_20
REMARK                            x       y       z     vdW  Elec       q    Type
REMARK                         _______ _______ _______ _____ _____    ______ ____
ROOT
ATOM      1  N   UNL     1      -8.580  15.918  66.642  0.00  0.00    -0.265 N 
ATOM      2  C   UNL     1      -8.192  15.550  67.999  0.00  0.00    +0.133 C 
ATOM      3  C   UNL     1      -6.762  15.979  68.171  0.00  0.00    +0.030 C 
ATOM      4  C   UNL     1      -9.115  16.177  69.008  0.00  0.00    +0.030 C 
ATOM      5  C   UNL     1      -8.371  14.086  67.969  0.00  0.00    +0.251 C 
ATOM      6  O   UNL     1      -7.802  13.265  68.724  0.00  0.00    -0.272 OA
ATOM      7  N   UNL     1      -9.551  13.868  67.187  0.00  0.00    -0.218 N 
ATOM      8  C   UNL     1      -9.596  14.977  66.282  0.00  0.00    +0.152 C 
ATOM      9  S   UNL     1     -10.767  15.216  65.157  0.00  0.00    -0.017 S 
ENDROOT
BRANCH   1  14
ATOM     10  C   UNL     1      -7.438  19.839  66.752  0.00  0.00    +0.083 A 
ATOM     11  C   UNL     1      -6.729  19.000  65.901  0.00  0.00    +0.146 A 
ATOM     12  F   UNL     1      -5.408  19.265  65.689  0.00  0.00    -0.204 F 
ATOM     13  C   UNL     1      -7.164  17.696  65.681  0.00  0.00    +0.045 A 
ATOM     14  C   UNL     1      -8.395  17.253  66.155  0.00  0.00    +0.055 A 
ATOM     15  C   UNL     1      -9.270  18.280  66.497  0.00  0.00    +0.015 A 
ATOM     16  C   UNL     1      -8.780  19.515  66.908  0.00  0.00    +0.008 A 
BRANCH  10  19
ATOM     17  C   UNL     1      -5.279  20.644  69.777  0.00  0.00    +0.139 C 
ATOM     18  N   UNL     1      -6.371  20.134  68.989  0.00  0.00    -0.200 NA
ATOM     19  C   UNL     1      -6.762  20.696  67.735  0.00  0.00    +0.267 C 
ATOM     20  O   UNL     1      -6.121  21.729  67.389  0.00  0.00    -0.268 OA
ENDBRANCH  10  19
ENDBRANCH   1  14
BRANCH   7  21
ATOM     21  C   UNL     1     -10.441  12.750  67.268  0.00  0.00    +0.060 A 
ATOM     22  C   UNL     1     -11.168  12.480  68.412  0.00  0.00    +0.020 A 
ATOM     23  C   UNL     1     -11.359  11.164  68.810  0.00  0.00    +0.082 A 
ATOM     24  C   UNL     1     -10.951  10.089  68.028  0.00  0.00    +0.072 A 
ATOM     25  C   UNL     1     -10.484  10.385  66.754  0.00  0.00    +0.012 A 
ATOM     26  C   UNL     1     -10.211  11.698  66.394  0.00  0.00    +0.016 A 
BRANCH  23  27
ATOM     27  C   UNL     1     -11.966  10.944  70.159  0.00  0.00    +0.419 C 
ATOM     28  F   UNL     1     -11.055  10.355  71.017  0.00  0.00    -0.166 F 
ATOM     29  F   UNL     1     -12.262  12.188  70.706  0.00  0.00    -0.166 F 
ATOM     30  F   UNL     1     -13.153  10.254  70.086  0.00  0.00    -0.166 F 
ENDBRANCH  23  27
BRANCH  24  31
ATOM     31  C   UNL     1     -10.502   8.903  68.721  0.00  0.00    +0.100 C 
ATOM     32  N   UNL     1     -10.133   7.914  69.222  0.00  0.00    -0.191 NA
ENDBRANCH  24  31
ENDBRANCH   7  21
TORSDOF 5
ENDMDL
