MODEL 1
REMARK VINA RESULT:      -5.9      0.000      0.000
REMARK  Name = 
REMARK  9 active torsions:
REMARK  status: ('A' for Active; 'I' for Inactive)
REMARK    1  A    between atoms: C_2  and  C_3
REMARK    2  A    between atoms: C_3  and  O_5
REMARK    3  A    between atoms: O_5  and  C_6
REMARK    4  A    between atoms: C_6  and  C_7
REMARK    5  A    between atoms: C_6  and  C_14
REMARK    6  A    between atoms: C_6  and  C_20
REMARK    7  A    between atoms: C_7  and  C_8
REMARK    8  A    between atoms: C_20  and  C_22
REMARK    9  A    between atoms: C_22  and  N_23
REMARK                            x       y       z     vdW  Elec       q    Type
REMARK                         _______ _______ _______ _____ _____    ______ ____
ROOT
ATOM      1  C   UNL     1     -10.547  15.057  68.030  0.00  0.00    +0.160 C 
ENDROOT
BRANCH   1   2
ATOM      2  C   UNL     1     -11.079  14.634  66.741  0.00  0.00    +0.014 A 
ATOM      3  C   UNL     1     -10.358  14.725  65.554  0.00  0.00    -0.001 A 
ATOM      4  C   UNL     1     -10.519  13.776  64.556  0.00  0.00    -0.000 A 
ATOM      5  C   UNL     1     -11.589  12.898  64.649  0.00  0.00    -0.000 A 
ATOM      6  C   UNL     1     -12.575  13.183  65.587  0.00  0.00    -0.000 A 
ATOM      7  C   UNL     1     -12.381  14.206  66.508  0.00  0.00    -0.001 A 
ENDBRANCH   1   2
BRANCH   1   8
ATOM      8  C   UNL     1      -9.592  16.342  67.650  0.00  0.00    +0.057 C 
ATOM      9  C   UNL     1      -8.690  16.217  69.023  0.00  0.00    +0.005 C 
BRANCH   8  10
ATOM     10  C   UNL     1     -10.645  17.404  68.335  0.00  0.00    +0.076 C 
BRANCH  10  11
ATOM     11  N   UNL     1     -10.593  18.596  67.582  0.00  0.00    -0.270 NA
ATOM     12  C   UNL     1     -10.417  18.471  66.180  0.00  0.00    +0.090 C 
ATOM     13  C   UNL     1     -10.043  19.747  68.201  0.00  0.00    +0.090 C 
ENDBRANCH  10  11
ENDBRANCH   8  10
ENDBRANCH   1   8
BRANCH   1  14
ATOM     14  O   UNL     1      -9.699  14.139  68.662  0.00  0.00    -0.451 OA
BRANCH  14  15
ATOM     15  C   UNL     1      -9.655  12.842  68.166  0.00  0.00    +0.317 C 
ATOM     16  O   UNL     1      -8.490  12.578  67.736  0.00  0.00    -0.250 OA
BRANCH  15  18
ATOM     17  C   UNL     1     -10.942  10.852  67.799  0.00  0.00    +0.012 C 
ATOM     18  C   UNL     1     -10.541  11.768  68.719  0.00  0.00    +0.110 C 
ENDBRANCH  15  18
ENDBRANCH  14  15
ENDBRANCH   1  14
BRANCH   1  19
ATOM     19  C   UNL     1     -11.507  15.703  68.963  0.00  0.00    +0.071 C 
BRANCH  19  20
ATOM     20  C   UNL     1     -11.695  15.036  70.264  0.00  0.00    -0.018 A 
ATOM     21  C   UNL     1     -12.751  14.142  70.399  0.00  0.00    -0.004 A 
ATOM     22  C   UNL     1     -13.551  14.108  71.535  0.00  0.00    -0.000 A 
ATOM     23  C   UNL     1     -13.131  14.742  72.680  0.00  0.00    -0.000 A 
ATOM     24  C   UNL     1     -12.104  15.643  72.585  0.00  0.00    -0.000 A 
ATOM     25  C   UNL     1     -11.483  15.839  71.382  0.00  0.00    -0.004 A 
ENDBRANCH  19  20
ENDBRANCH   1  19
TORSDOF 9
ENDMDL
MODEL 2
REMARK VINA RESULT:      -5.6      1.773      5.082
REMARK  Name = 
REMARK  9 active torsions:
REMARK  status: ('A' for Active; 'I' for Inactive)
REMARK    1  A    between atoms: C_2  and  C_3
REMARK    2  A    between atoms: C_3  and  O_5
REMARK    3  A    between atoms: O_5  and  C_6
REMARK    4  A    between atoms: C_6  and  C_7
REMARK    5  A    between atoms: C_6  and  C_14
REMARK    6  A    between atoms: C_6  and  C_20
REMARK    7  A    between atoms: C_7  and  C_8
REMARK    8  A    between atoms: C_20  and  C_22
REMARK    9  A    between atoms: C_22  and  N_23
REMARK                            x       y       z     vdW  Elec       q    Type
REMARK                         _______ _______ _______ _____ _____    ______ ____
ROOT
ATOM      1  C   UNL     1     -10.151  15.156  67.987  0.00  0.00    +0.160 C 
ENDROOT
BRANCH   1   2
ATOM      2  C   UNL     1      -8.706  15.277  68.130  0.00  0.00    +0.014 A 
ATOM      3  C   UNL     1      -7.836  15.322  67.043  0.00  0.00    -0.001 A 
ATOM      4  C   UNL     1      -6.678  16.083  67.098  0.00  0.00    -0.000 A 
ATOM      5  C   UNL     1      -6.273  16.578  68.329  0.00  0.00    -0.000 A 
ATOM      6  C   UNL     1      -6.899  16.074  69.462  0.00  0.00    -0.000 A 
ATOM      7  C   UNL     1      -8.009  15.246  69.331  0.00  0.00    -0.001 A 
ENDBRANCH   1   2
BRANCH   1   8
ATOM      8  C   UNL     1     -10.652  14.724  69.494  0.00  0.00    +0.057 C 
ATOM      9  C   UNL     1     -11.225  13.260  69.003  0.00  0.00    +0.005 C 
BRANCH   8  10
ATOM     10  C   UNL     1     -12.109  15.460  69.286  0.00  0.00    +0.076 C 
BRANCH  10  11
ATOM     11  N   UNL     1     -12.607  15.780  70.566  0.00  0.00    -0.270 NA
ATOM     12  C   UNL     1     -11.665  16.169  71.552  0.00  0.00    +0.090 C 
ATOM     13  C   UNL     1     -13.766  15.097  71.015  0.00  0.00    +0.090 C 
ENDBRANCH  10  11
ENDBRANCH   8  10
ENDBRANCH   1   8
BRANCH   1  14
ATOM     14  O   UNL     1     -10.589  14.128  67.143  0.00  0.00    -0.451 OA
BRANCH  14  15
ATOM     15  C   UNL     1     -11.182  14.482  65.937  0.00  0.00    +0.317 C 
ATOM     16  O   UNL     1     -10.293  14.650  65.046  0.00  0.00    -0.250 OA
BRANCH  15  18
ATOM     17  C   UNL     1     -12.594  12.787  64.996  0.00  0.00    +0.012 C 
ATOM     18  C   UNL     1     -12.559  14.014  65.580  0.00  0.00    +0.110 C 
ENDBRANCH  15  18
ENDBRANCH  14  15
ENDBRANCH   1  14
BRANCH   1  19
ATOM     19  C   UNL     1     -10.908  16.423  67.806  0.00  0.00    +0.071 C 
BRANCH  19  20
ATOM     20  C   UNL     1     -10.100  17.628  67.544  0.00  0.00    -0.018 A 
ATOM     21  C   UNL     1      -9.878  18.512  68.594  0.00  0.00    -0.004 A 
ATOM     22  C   UNL     1      -9.945  19.890  68.427  0.00  0.00    -0.000 A 
ATOM     23  C   UNL     1      -9.927  20.421  67.160  0.00  0.00    -0.000 A 
ATOM     24  C   UNL     1     -10.158  19.586  66.100  0.00  0.00    -0.000 A 
ATOM     25  C   UNL     1     -10.333  18.247  66.319  0.00  0.00    -0.004 A 
ENDBRANCH  19  20
ENDBRANCH   1  19
TORSDOF 9
ENDMDL
MODEL 3
REMARK VINA RESULT:      -5.3      2.320      5.096
REMARK  Name = 
REMARK  9 active torsions:
REMARK  status: ('A' for Active; 'I' for Inactive)
REMARK    1  A    between atoms: C_2  and  C_3
REMARK    2  A    between atoms: C_3  and  O_5
REMARK    3  A    between atoms: O_5  and  C_6
REMARK    4  A    between atoms: C_6  and  C_7
REMARK    5  A    between atoms: C_6  and  C_14
REMARK    6  A    between atoms: C_6  and  C_20
REMARK    7  A    between atoms: C_7  and  C_8
REMARK    8  A    between atoms: C_20  and  C_22
REMARK    9  A    between atoms: C_22  and  N_23
REMARK                            x       y       z     vdW  Elec       q    Type
REMARK                         _______ _______ _______ _____ _____    ______ ____
ROOT
ATOM      1  C   UNL     1      -9.834  15.536  67.508  0.00  0.00    +0.160 C 
ENDROOT
BRANCH   1   2
ATOM      2  C   UNL     1      -8.492  16.088  67.637  0.00  0.00    +0.014 A 
ATOM      3  C   UNL     1      -7.595  16.161  66.575  0.00  0.00    -0.001 A 
ATOM      4  C   UNL     1      -6.697  17.214  66.481  0.00  0.00    -0.000 A 
ATOM      5  C   UNL     1      -6.529  18.037  67.585  0.00  0.00    -0.000 A 
ATOM      6  C   UNL     1      -7.070  17.611  68.792  0.00  0.00    -0.000 A 
ATOM      7  C   UNL     1      -7.898  16.494  68.826  0.00  0.00    -0.001 A 
ENDBRANCH   1   2
BRANCH   1   8
ATOM      8  C   UNL     1      -9.688  14.447  66.284  0.00  0.00    +0.057 C 
ATOM      9  C   UNL     1     -11.312  14.204  66.159  0.00  0.00    +0.005 C 
BRANCH   8  10
ATOM     10  C   UNL     1      -9.495  13.198  67.338  0.00  0.00    +0.076 C 
BRANCH  10  11
ATOM     11  N   UNL     1      -8.493  12.354  66.814  0.00  0.00    -0.270 NA
ATOM     12  C   UNL     1      -8.907  11.106  66.284  0.00  0.00    +0.090 C 
ATOM     13  C   UNL     1      -7.206  12.409  67.406  0.00  0.00    +0.090 C 
ENDBRANCH  10  11
ENDBRANCH   8  10
ENDBRANCH   1   8
BRANCH   1  14
ATOM     14  O   UNL     1     -10.818  16.439  67.084  0.00  0.00    -0.451 OA
BRANCH  14  15
ATOM     15  C   UNL     1     -10.409  17.692  66.644  0.00  0.00    +0.317 C 
ATOM     16  O   UNL     1     -10.556  17.782  65.386  0.00  0.00    -0.250 OA
BRANCH  15  18
ATOM     17  C   UNL     1      -9.709  19.929  67.152  0.00  0.00    +0.012 C 
ATOM     18  C   UNL     1     -10.512  18.898  67.527  0.00  0.00    +0.110 C 
ENDBRANCH  15  18
ENDBRANCH  14  15
ENDBRANCH   1  14
BRANCH   1  19
ATOM     19  C   UNL     1     -10.293  14.646  68.606  0.00  0.00    +0.071 C 
BRANCH  19  20
ATOM     20  C   UNL     1     -11.415  15.148  69.422  0.00  0.00    -0.018 A 
ATOM     21  C   UNL     1     -11.158  16.158  70.342  0.00  0.00    -0.004 A 
ATOM     22  C   UNL     1     -11.705  16.150  71.620  0.00  0.00    -0.000 A 
ATOM     23  C   UNL     1     -12.755  15.311  71.903  0.00  0.00    -0.000 A 
ATOM     24  C   UNL     1     -13.029  14.293  71.030  0.00  0.00    -0.000 A 
ATOM     25  C   UNL     1     -12.303  14.177  69.876  0.00  0.00    -0.004 A 
ENDBRANCH  19  20
ENDBRANCH   1  19
TORSDOF 9
ENDMDL
MODEL 4
REMARK VINA RESULT:      -5.2      2.731      4.362
REMARK  Name = 
REMARK  9 active torsions:
REMARK  status: ('A' for Active; 'I' for Inactive)
REMARK    1  A    between atoms: C_2  and  C_3
REMARK    2  A    between atoms: C_3  and  O_5
REMARK    3  A    between atoms: O_5  and  C_6
REMARK    4  A    between atoms: C_6  and  C_7
REMARK    5  A    between atoms: C_6  and  C_14
REMARK    6  A    between atoms: C_6  and  C_20
REMARK    7  A    between atoms: C_7  and  C_8
REMARK    8  A    between atoms: C_20  and  C_22
REMARK    9  A    between atoms: C_22  and  N_23
REMARK                            x       y       z     vdW  Elec       q    Type
REMARK                         _______ _______ _______ _____ _____    ______ ____
ROOT
ATOM      1  C   UNL     1     -10.299  11.669  67.226  0.00  0.00    +0.160 C 
ENDROOT
BRANCH   1   2
ATOM      2  C   UNL     1     -10.216  10.346  66.622  0.00  0.00    +0.014 A 
ATOM      3  C   UNL     1      -9.616  10.110  65.388  0.00  0.00    -0.001 A 
ATOM      4  C   UNL     1      -8.942   8.922  65.147  0.00  0.00    -0.000 A 
ATOM      5  C   UNL     1      -9.102   7.880  66.049  0.00  0.00    -0.000 A 
ATOM      6  C   UNL     1     -10.117   7.994  66.990  0.00  0.00    -0.000 A 
ATOM      7  C   UNL     1     -10.810   9.193  67.121  0.00  0.00    -0.001 A 
ENDBRANCH   1   2
BRANCH   1   8
ATOM      8  C   UNL     1     -10.321  12.684  65.931  0.00  0.00    +0.057 C 
ATOM      9  C   UNL     1      -9.988  14.021  66.834  0.00  0.00    +0.005 C 
BRANCH   8  10
ATOM     10  C   UNL     1     -11.947  12.901  66.052  0.00  0.00    +0.076 C 
BRANCH  10  11
ATOM     11  N   UNL     1     -12.426  13.229  64.766  0.00  0.00    -0.270 NA
ATOM     12  C   UNL     1     -12.240  12.270  63.738  0.00  0.00    +0.090 C 
ATOM     13  C   UNL     1     -12.413  14.595  64.384  0.00  0.00    +0.090 C 
ENDBRANCH  10  11
ENDBRANCH   8  10
ENDBRANCH   1   8
BRANCH   1  14
ATOM     14  O   UNL     1      -9.185  12.058  67.981  0.00  0.00    -0.451 OA
BRANCH  14  15
ATOM     15  C   UNL     1      -8.171  11.128  68.175  0.00  0.00    +0.317 C 
ATOM     16  O   UNL     1      -7.128  11.482  67.544  0.00  0.00    -0.250 OA
BRANCH  15  18
ATOM     17  C   UNL     1      -7.502   9.107  69.279  0.00  0.00    +0.012 C 
ATOM     18  C   UNL     1      -8.080  10.327  69.437  0.00  0.00    +0.110 C 
ENDBRANCH  15  18
ENDBRANCH  14  15
ENDBRANCH   1  14
BRANCH   1  19
ATOM     19  C   UNL     1     -11.592  12.025  67.867  0.00  0.00    +0.071 C 
BRANCH  19  20
ATOM     20  C   UNL     1     -11.596  12.062  69.341  0.00  0.00    -0.018 A 
ATOM     21  C   UNL     1     -11.975  10.914  70.027  0.00  0.00    -0.004 A 
ATOM     22  C   UNL     1     -12.801  10.959  71.144  0.00  0.00    -0.000 A 
ATOM     23  C   UNL     1     -13.013  12.157  71.783  0.00  0.00    -0.000 A 
ATOM     24  C   UNL     1     -12.668  13.311  71.134  0.00  0.00    -0.000 A 
ATOM     25  C   UNL     1     -12.066  13.244  69.906  0.00  0.00    -0.004 A 
ENDBRANCH  19  20
ENDBRANCH   1  19
TORSDOF 9
ENDMDL
MODEL 5
REMARK VINA RESULT:      -5.1      1.954      5.755
REMARK  Name = 
REMARK  9 active torsions:
REMARK  status: ('A' for Active; 'I' for Inactive)
REMARK    1  A    between atoms: C_2  and  C_3
REMARK    2  A    between atoms: C_3  and  O_5
REMARK    3  A    between atoms: O_5  and  C_6
REMARK    4  A    between atoms: C_6  and  C_7
REMARK    5  A    between atoms: C_6  and  C_14
REMARK    6  A    between atoms: C_6  and  C_20
REMARK    7  A    between atoms: C_7  and  C_8
REMARK    8  A    between atoms: C_20  and  C_22
REMARK    9  A    between atoms: C_22  and  N_23
REMARK                            x       y       z     vdW  Elec       q    Type
REMARK                         _______ _______ _______ _____ _____    ______ ____
ROOT
ATOM      1  C   UNL     1      -9.715  16.078  67.538  0.00  0.00    +0.160 C 
ENDROOT
BRANCH   1   2
ATOM      2  C   UNL     1     -10.094  17.483  67.477  0.00  0.00    +0.014 A 
ATOM      3  C   UNL     1     -10.057  18.329  68.582  0.00  0.00    -0.001 A 
ATOM      4  C   UNL     1      -9.739  19.671  68.434  0.00  0.00    -0.000 A 
ATOM      5  C   UNL     1      -9.719  20.205  67.153  0.00  0.00    -0.000 A 
ATOM      6  C   UNL     1     -10.265  19.441  66.129  0.00  0.00    -0.000 A 
ATOM      7  C   UNL     1     -10.641  18.123  66.372  0.00  0.00    -0.001 A 
ENDBRANCH   1   2
BRANCH   1   8
ATOM      8  C   UNL     1      -9.652  15.765  69.152  0.00  0.00    +0.057 C 
ATOM      9  C   UNL     1      -9.011  14.262  68.946  0.00  0.00    +0.005 C 
BRANCH   8  10
ATOM     10  C   UNL     1     -11.197  15.199  69.164  0.00  0.00    +0.076 C 
BRANCH  10  11
ATOM     11  N   UNL     1     -11.540  14.935  70.506  0.00  0.00    -0.270 NA
ATOM     12  C   UNL     1     -12.295  13.763  70.766  0.00  0.00    +0.090 C 
ATOM     13  C   UNL     1     -11.753  16.044  71.365  0.00  0.00    +0.090 C 
ENDBRANCH  10  11
ENDBRANCH   8  10
ENDBRANCH   1   8
BRANCH   1  14
ATOM     14  O   UNL     1      -8.436  15.777  67.052  0.00  0.00    -0.451 OA
BRANCH  14  15
ATOM     15  C   UNL     1      -7.469  16.775  67.097  0.00  0.00    +0.317 C 
ATOM     16  O   UNL     1      -6.650  16.547  68.040  0.00  0.00    -0.250 OA
BRANCH  15  18
ATOM     17  C   UNL     1      -6.520  18.735  66.093  0.00  0.00    +0.012 C 
ATOM     18  C   UNL     1      -7.046  17.503  65.859  0.00  0.00    +0.110 C 
ENDBRANCH  15  18
ENDBRANCH  14  15
ENDBRANCH   1  14
BRANCH   1  19
ATOM     19  C   UNL     1     -10.746  15.094  67.114  0.00  0.00    +0.071 C 
BRANCH  19  20
ATOM     20  C   UNL     1     -10.612  14.565  65.745  0.00  0.00    -0.018 A 
ATOM     21  C   UNL     1     -11.627  14.834  64.833  0.00  0.00    -0.004 A 
ATOM     22  C   UNL     1     -12.105  13.870  63.953  0.00  0.00    -0.000 A 
ATOM     23  C   UNL     1     -11.381  12.720  63.748  0.00  0.00    -0.000 A 
ATOM     24  C   UNL     1     -10.385  12.411  64.634  0.00  0.00    -0.000 A 
ATOM     25  C   UNL     1     -10.091  13.277  65.652  0.00  0.00    -0.004 A 
ENDBRANCH  19  20
ENDBRANCH   1  19
TORSDOF 9
ENDMDL
MODEL 6
REMARK VINA RESULT:      -5.0      1.433      2.351
REMARK  Name = 
REMARK  9 active torsions:
REMARK  status: ('A' for Active; 'I' for Inactive)
REMARK    1  A    between atoms: C_2  and  C_3
REMARK    2  A    between atoms: C_3  and  O_5
REMARK    3  A    between atoms: O_5  and  C_6
REMARK    4  A    between atoms: C_6  and  C_7
REMARK    5  A    between atoms: C_6  and  C_14
REMARK    6  A    between atoms: C_6  and  C_20
REMARK    7  A    between atoms: C_7  and  C_8
REMARK    8  A    between atoms: C_20  and  C_22
REMARK    9  A    between atoms: C_22  and  N_23
REMARK                            x       y       z     vdW  Elec       q    Type
REMARK                         _______ _______ _______ _____ _____    ______ ____
ROOT
ATOM      1  C   UNL     1     -10.088  14.587  67.782  0.00  0.00    +0.160 C 
ENDROOT
BRANCH   1   2
ATOM      2  C   UNL     1     -11.072  13.788  67.065  0.00  0.00    +0.014 A 
ATOM      3  C   UNL     1     -12.227  14.327  66.503  0.00  0.00    -0.001 A 
ATOM      4  C   UNL     1     -12.750  13.806  65.329  0.00  0.00    -0.000 A 
ATOM      5  C   UNL     1     -12.264  12.589  64.875  0.00  0.00    -0.000 A 
ATOM      6  C   UNL     1     -11.478  11.845  65.747  0.00  0.00    -0.000 A 
ATOM      7  C   UNL     1     -11.056  12.403  66.949  0.00  0.00    -0.001 A 
ENDBRANCH   1   2
BRANCH   1   8
ATOM      8  C   UNL     1     -10.318  16.104  67.190  0.00  0.00    +0.057 C 
ATOM      9  C   UNL     1      -9.065  15.997  66.126  0.00  0.00    +0.005 C 
BRANCH   8  10
ATOM     10  C   UNL     1      -9.377  16.770  68.364  0.00  0.00    +0.076 C 
BRANCH  10  11
ATOM     11  N   UNL     1      -9.131  18.111  67.999  0.00  0.00    -0.270 NA
ATOM     12  C   UNL     1      -7.900  18.681  68.410  0.00  0.00    +0.090 C 
ATOM     13  C   UNL     1     -10.244  18.984  67.897  0.00  0.00    +0.090 C 
ENDBRANCH  10  11
ENDBRANCH   8  10
ENDBRANCH   1   8
BRANCH   1  14
ATOM     14  O   UNL     1      -8.749  14.282  67.508  0.00  0.00    -0.451 OA
BRANCH  14  15
ATOM     15  C   UNL     1      -8.013  13.629  68.490  0.00  0.00    +0.317 C 
ATOM     16  O   UNL     1      -8.068  12.373  68.314  0.00  0.00    -0.250 OA
BRANCH  15  18
ATOM     17  C   UNL     1      -6.082  15.034  68.272  0.00  0.00    +0.012 C 
ATOM     18  C   UNL     1      -6.819  14.273  69.124  0.00  0.00    +0.110 C 
ENDBRANCH  15  18
ENDBRANCH  14  15
ENDBRANCH   1  14
BRANCH   1  19
ATOM     19  C   UNL     1     -10.349  14.820  69.227  0.00  0.00    +0.071 C 
BRANCH  19  20
ATOM     20  C   UNL     1     -11.725  14.558  69.687  0.00  0.00    -0.018 A 
ATOM     21  C   UNL     1     -12.459  15.619  70.207  0.00  0.00    -0.004 A 
ATOM     22  C   UNL     1     -13.254  15.484  71.339  0.00  0.00    -0.000 A 
ATOM     23  C   UNL     1     -13.580  14.228  71.792  0.00  0.00    -0.000 A 
ATOM     24  C   UNL     1     -12.870  13.159  71.317  0.00  0.00    -0.000 A 
ATOM     25  C   UNL     1     -11.908  13.355  70.363  0.00  0.00    -0.004 A 
ENDBRANCH  19  20
ENDBRANCH   1  19
TORSDOF 9
ENDMDL
MODEL 7
REMARK VINA RESULT:      -5.0      2.361      5.042
REMARK  Name = 
REMARK  9 active torsions:
REMARK  status: ('A' for Active; 'I' for Inactive)
REMARK    1  A    between atoms: C_2  and  C_3
REMARK    2  A    between atoms: C_3  and  O_5
REMARK    3  A    between atoms: O_5  and  C_6
REMARK    4  A    between atoms: C_6  and  C_7
REMARK    5  A    between atoms: C_6  and  C_14
REMARK    6  A    between atoms: C_6  and  C_20
REMARK    7  A    between atoms: C_7  and  C_8
REMARK    8  A    between atoms: C_20  and  C_22
REMARK    9  A    between atoms: C_22  and  N_23
REMARK                            x       y       z     vdW  Elec       q    Type
REMARK                         _______ _______ _______ _____ _____    ______ ____
ROOT
ATOM      1  C   UNL     1     -10.719  13.989  67.055  0.00  0.00    +0.160 C 
ENDROOT
BRANCH   1   2
ATOM      2  C   UNL     1      -9.356  14.501  66.992  0.00  0.00    +0.014 A 
ATOM      3  C   UNL     1      -8.956  15.492  66.100  0.00  0.00    -0.001 A 
ATOM      4  C   UNL     1      -7.984  16.414  66.460  0.00  0.00    -0.000 A 
ATOM      5  C   UNL     1      -7.238  16.173  67.604  0.00  0.00    -0.000 A 
ATOM      6  C   UNL     1      -7.328  14.909  68.175  0.00  0.00    -0.000 A 
ATOM      7  C   UNL     1      -8.274  14.002  67.708  0.00  0.00    -0.001 A 
ENDBRANCH   1   2
BRANCH   1   8
ATOM      8  C   UNL     1     -11.254  14.129  65.506  0.00  0.00    +0.057 C 
ATOM      9  C   UNL     1     -12.843  14.039  65.931  0.00  0.00    +0.005 C 
BRANCH   8  10
ATOM     10  C   UNL     1     -11.140  12.507  65.256  0.00  0.00    +0.076 C 
BRANCH  10  11
ATOM     11  N   UNL     1     -11.173  12.290  63.863  0.00  0.00    -0.270 NA
ATOM     12  C   UNL     1     -12.419  11.931  63.290  0.00  0.00    +0.090 C 
ATOM     13  C   UNL     1     -10.006  11.770  63.246  0.00  0.00    +0.090 C 
ENDBRANCH  10  11
ENDBRANCH   8  10
ENDBRANCH   1   8
BRANCH   1  14
ATOM     14  O   UNL     1     -11.611  14.746  67.825  0.00  0.00    -0.451 OA
BRANCH  14  15
ATOM     15  C   UNL     1     -11.084  15.694  68.693  0.00  0.00    +0.317 C 
ATOM     16  O   UNL     1     -11.369  16.863  68.288  0.00  0.00    -0.250 OA
BRANCH  15  18
ATOM     17  C   UNL     1     -12.057  15.426  70.868  0.00  0.00    +0.012 C 
ATOM     18  C   UNL     1     -10.903  15.399  70.150  0.00  0.00    +0.110 C 
ENDBRANCH  15  18
ENDBRANCH  14  15
ENDBRANCH   1  14
BRANCH   1  19
ATOM     19  C   UNL     1     -10.868  12.525  67.260  0.00  0.00    +0.071 C 
BRANCH  19  20
ATOM     20  C   UNL     1     -10.722  12.046  68.646  0.00  0.00    -0.018 A 
ATOM     21  C   UNL     1      -9.839  10.999  68.892  0.00  0.00    -0.004 A 
ATOM     22  C   UNL     1     -10.152   9.956  69.755  0.00  0.00    -0.000 A 
ATOM     23  C   UNL     1     -11.208  10.087  70.623  0.00  0.00    -0.000 A 
ATOM     24  C   UNL     1     -12.109  11.095  70.405  0.00  0.00    -0.000 A 
ATOM     25  C   UNL     1     -11.902  11.978  69.381  0.00  0.00    -0.004 A 
ENDBRANCH  19  20
ENDBRANCH   1  19
TORSDOF 9
ENDMDL
MODEL 8
REMARK VINA RESULT:      -5.0      2.146      4.552
REMARK  Name = 
REMARK  9 active torsions:
REMARK  status: ('A' for Active; 'I' for Inactive)
REMARK    1  A    between atoms: C_2  and  C_3
REMARK    2  A    between atoms: C_3  and  O_5
REMARK    3  A    between atoms: O_5  and  C_6
REMARK    4  A    between atoms: C_6  and  C_7
REMARK    5  A    between atoms: C_6  and  C_14
REMARK    6  A    between atoms: C_6  and  C_20
REMARK    7  A    between atoms: C_7  and  C_8
REMARK    8  A    between atoms: C_20  and  C_22
REMARK    9  A    between atoms: C_22  and  N_23
REMARK                            x       y       z     vdW  Elec       q    Type
REMARK                         _______ _______ _______ _____ _____    ______ ____
ROOT
ATOM      1  C   UNL     1     -10.329  15.904  66.878  0.00  0.00    +0.160 C 
ENDROOT
BRANCH   1   2
ATOM      2  C   UNL     1      -9.944  17.289  67.119  0.00  0.00    +0.014 A 
ATOM      3  C   UNL     1     -10.282  18.331  66.260  0.00  0.00    -0.001 A 
ATOM      4  C   UNL     1     -10.545  19.599  66.758  0.00  0.00    -0.000 A 
ATOM      5  C   UNL     1     -10.211  19.870  68.077  0.00  0.00    -0.000 A 
ATOM      6  C   UNL     1      -9.406  18.951  68.739  0.00  0.00    -0.000 A 
ATOM      7  C   UNL     1      -9.114  17.729  68.142  0.00  0.00    -0.001 A 
ENDBRANCH   1   2
BRANCH   1   8
ATOM      8  C   UNL     1      -9.121  15.040  67.586  0.00  0.00    +0.057 C 
ATOM      9  C   UNL     1      -7.944  15.710  66.649  0.00  0.00    +0.005 C 
BRANCH   8  10
ATOM     10  C   UNL     1      -9.341  13.775  66.557  0.00  0.00    +0.076 C 
BRANCH  10  11
ATOM     11  N   UNL     1      -9.266  12.591  67.321  0.00  0.00    -0.270 NA
ATOM     12  C   UNL     1      -7.985  12.192  67.778  0.00  0.00    +0.090 C 
ATOM     13  C   UNL     1     -10.200  11.562  67.038  0.00  0.00    +0.090 C 
ENDBRANCH  10  11
ENDBRANCH   8  10
ENDBRANCH   1   8
BRANCH   1  14
ATOM     14  O   UNL     1     -10.332  15.504  65.536  0.00  0.00    -0.451 OA
BRANCH  14  15
ATOM     15  C   UNL     1     -11.544  15.513  64.855  0.00  0.00    +0.317 C 
ATOM     16  O   UNL     1     -11.521  16.391  63.938  0.00  0.00    -0.250 OA
BRANCH  15  18
ATOM     17  C   UNL     1     -11.837  13.336  63.895  0.00  0.00    +0.012 C 
ATOM     18  C   UNL     1     -12.371  14.272  64.723  0.00  0.00    +0.110 C 
ENDBRANCH  15  18
ENDBRANCH  14  15
ENDBRANCH   1  14
BRANCH   1  19
ATOM     19  C   UNL     1     -11.501  15.400  67.641  0.00  0.00    +0.071 C 
BRANCH  19  20
ATOM     20  C   UNL     1     -11.266  15.091  69.063  0.00  0.00    -0.018 A 
ATOM     21  C   UNL     1     -11.662  13.846  69.540  0.00  0.00    -0.004 A 
ATOM     22  C   UNL     1     -12.289  13.692  70.771  0.00  0.00    -0.000 A 
ATOM     23  C   UNL     1     -12.255  14.719  71.683  0.00  0.00    -0.000 A 
ATOM     24  C   UNL     1     -11.887  15.964  71.248  0.00  0.00    -0.000 A 
ATOM     25  C   UNL     1     -11.500  16.140  69.947  0.00  0.00    -0.004 A 
ENDBRANCH  19  20
ENDBRANCH   1  19
TORSDOF 9
ENDMDL
MODEL 9
REMARK VINA RESULT:      -4.9      1.611      4.025
REMARK  Name = 
REMARK  9 active torsions:
REMARK  status: ('A' for Active; 'I' for Inactive)
REMARK    1  A    between atoms: C_2  and  C_3
REMARK    2  A    between atoms: C_3  and  O_5
REMARK    3  A    between atoms: O_5  and  C_6
REMARK    4  A    between atoms: C_6  and  C_7
REMARK    5  A    between atoms: C_6  and  C_14
REMARK    6  A    between atoms: C_6  and  C_20
REMARK    7  A    between atoms: C_7  and  C_8
REMARK    8  A    between atoms: C_20  and  C_22
REMARK    9  A    between atoms: C_22  and  N_23
REMARK                            x       y       z     vdW  Elec       q    Type
REMARK                         _______ _______ _______ _____ _____    ______ ____
ROOT
ATOM      1  C   UNL     1     -10.343  14.756  67.708  0.00  0.00    +0.160 C 
ENDROOT
BRANCH   1   2
ATOM      2  C   UNL     1     -10.893  14.327  66.429  0.00  0.00    +0.014 A 
ATOM      3  C   UNL     1     -10.109  14.108  65.299  0.00  0.00    -0.001 A 
ATOM      4  C   UNL     1     -10.443  13.115  64.390  0.00  0.00    -0.000 A 
ATOM      5  C   UNL     1     -11.699  12.533  64.483  0.00  0.00    -0.000 A 
ATOM      6  C   UNL     1     -12.633  13.148  65.307  0.00  0.00    -0.000 A 
ATOM      7  C   UNL     1     -12.245  14.195  66.136  0.00  0.00    -0.001 A 
ENDBRANCH   1   2
BRANCH   1   8
ATOM      8  C   UNL     1     -11.579  15.595  68.397  0.00  0.00    +0.057 C 
ATOM      9  C   UNL     1     -10.789  17.038  68.319  0.00  0.00    +0.005 C 
BRANCH   8  10
ATOM     10  C   UNL     1     -11.029  15.277  69.914  0.00  0.00    +0.076 C 
BRANCH  10  11
ATOM     11  N   UNL     1     -12.107  15.470  70.804  0.00  0.00    -0.270 NA
ATOM     12  C   UNL     1     -11.852  16.215  71.983  0.00  0.00    +0.090 C 
ATOM     13  C   UNL     1     -13.088  14.448  70.886  0.00  0.00    +0.090 C 
ENDBRANCH  10  11
ENDBRANCH   8  10
ENDBRANCH   1   8
BRANCH   1  14
ATOM     14  O   UNL     1      -9.278  15.663  67.632  0.00  0.00    -0.451 OA
BRANCH  14  15
ATOM     15  C   UNL     1      -8.009  15.210  67.975  0.00  0.00    +0.317 C 
ATOM     16  O   UNL     1      -7.343  14.944  66.927  0.00  0.00    -0.250 OA
BRANCH  15  18
ATOM     17  C   UNL     1      -6.689  14.680  69.905  0.00  0.00    +0.012 C 
ATOM     18  C   UNL     1      -7.334  15.668  69.230  0.00  0.00    +0.110 C 
ENDBRANCH  15  18
ENDBRANCH  14  15
ENDBRANCH   1  14
BRANCH   1  19
ATOM     19  C   UNL     1     -10.136  13.696  68.729  0.00  0.00    +0.071 C 
BRANCH  19  20
ATOM     20  C   UNL     1     -10.372  12.311  68.283  0.00  0.00    -0.018 A 
ATOM     21  C   UNL     1     -11.469  11.631  68.802  0.00  0.00    -0.004 A 
ATOM     22  C   UNL     1     -11.395  10.300  69.195  0.00  0.00    -0.000 A 
ATOM     23  C   UNL     1     -10.327   9.533  68.796  0.00  0.00    -0.000 A 
ATOM     24  C   UNL     1      -9.221  10.167  68.296  0.00  0.00    -0.000 A 
ATOM     25  C   UNL     1      -9.231  11.527  68.144  0.00  0.00    -0.004 A 
ENDBRANCH  19  20
ENDBRANCH   1  19
TORSDOF 9
ENDMDL
