MODEL 1
REMARK VINA RESULT:      -9.2      0.000      0.000
REMARK  Name = 
REMARK  6 active torsions:
REMARK  status: ('A' for Active; 'I' for Inactive)
REMARK    1  A    between atoms: C_2  and  N_4
REMARK    2  A    between atoms: C_2  and  C_32
REMARK    3  A    between atoms: C_5  and  C_7
REMARK    4  A    between atoms: N_21  and  C_22
REMARK    5  A    between atoms: C_22  and  C_23
REMARK    6  A    between atoms: C_34  and  C_35
REMARK                            x       y       z     vdW  Elec       q    Type
REMARK                         _______ _______ _______ _____ _____    ______ ____
ROOT
ATOM      1  C   UNL     1      -8.706  17.056  68.125  0.00  0.00    +0.074 C 
ATOM      2  C   UNL     1      -8.482  18.525  67.890  0.00  0.00    +0.066 C 
ATOM      3  C   UNL     1      -7.376  18.403  66.878  0.00  0.00    +0.152 C 
ATOM      4  C   UNL     1      -7.219  19.982  66.483  0.00  0.00    +0.091 C 
ATOM      5  N   UNL     1      -6.403  19.625  65.191  0.00  0.00    -0.271 NA
ATOM      6  C   UNL     1      -5.138  19.209  65.510  0.00  0.00    +0.073 C 
ATOM      7  C   UNL     1      -5.087  17.875  66.233  0.00  0.00    +0.028 C 
ATOM      8  C   UNL     1      -5.897  20.343  67.403  0.00  0.00    +0.045 C 
ATOM      9  C   UNL     1      -6.165  19.695  68.733  0.00  0.00    -0.021 A 
ATOM     10  C   UNL     1      -5.755  20.229  69.949  0.00  0.00    -0.001 A 
ATOM     11  C   UNL     1      -5.443  19.348  70.990  0.00  0.00    +0.045 A 
ATOM     12  C   UNL     1      -5.389  17.971  70.772  0.00  0.00    +0.229 A 
ATOM     13  C   UNL     1      -5.712  17.430  69.533  0.00  0.00    +0.174 A 
ATOM     14  O   UNL     1      -5.347  16.279  68.809  0.00  0.00    -0.468 OA
ATOM     15  C   UNL     1      -6.387  16.280  67.647  0.00  0.00    +0.232 C 
ATOM     16  O   UNL     1      -4.875  17.084  71.722  0.00  0.00    -0.283 OA
ATOM     17  C   UNL     1      -5.770  18.381  68.581  0.00  0.00    +0.017 A 
ATOM     18  O   UNL     1      -7.956  17.834  65.733  0.00  0.00    -0.223 OA
ATOM     19  C   UNL     1      -6.117  17.862  67.287  0.00  0.00    +0.094 C 
ATOM     20  C   UNL     1      -7.633  16.538  68.667  0.00  0.00    +0.214 C 
ATOM     21  O   UNL     1      -7.851  15.371  69.413  0.00  0.00    -0.288 OA
ENDROOT
BRANCH   1  23
ATOM     22  N   UNL     1     -10.297  15.234  67.363  0.00  0.00    -0.196 NA
ATOM     23  C   UNL     1     -10.018  16.491  67.985  0.00  0.00    +0.264 C 
ATOM     24  O   UNL     1     -10.989  17.302  67.831  0.00  0.00    -0.269 OA
BRANCH  22  26
ATOM     25  C   UNL     1     -11.979  14.745  66.858  0.00  0.00    +0.031 C 
ATOM     26  C   UNL     1     -11.495  14.520  67.594  0.00  0.00    +0.150 C 
ATOM     27  C   UNL     1     -12.072  15.033  68.904  0.00  0.00    +0.031 C 
BRANCH  26  28
ATOM     28  C   UNL     1     -11.249  13.059  67.736  0.00  0.00    +0.254 A 
ATOM     29  O   UNL     1     -11.990  12.128  67.160  0.00  0.00    -0.335 OA
ATOM     30  N   UNL     1     -12.051  11.069  67.932  0.00  0.00    -0.056 NA
ATOM     31  C   UNL     1     -11.233  11.248  68.999  0.00  0.00    +0.203 A 
ATOM     32  N   UNL     1     -10.552  12.374  68.664  0.00  0.00    -0.189 NA
BRANCH  31  33
ATOM     33  C   UNL     1     -11.423  10.687  70.350  0.00  0.00    +0.039 A 
ATOM     34  C   UNL     1     -12.630  10.949  70.987  0.00  0.00    +0.003 A 
ATOM     35  C   UNL     1     -13.212  10.036  71.859  0.00  0.00    +0.000 A 
ATOM     36  C   UNL     1     -12.872   8.693  71.747  0.00  0.00    +0.000 A 
ATOM     37  C   UNL     1     -11.604   8.445  71.242  0.00  0.00    +0.000 A 
ATOM     38  C   UNL     1     -10.848   9.469  70.690  0.00  0.00    +0.003 A 
ENDBRANCH  31  33
ENDBRANCH  26  28
ENDBRANCH  22  26
ENDBRANCH   1  23
BRANCH   5  39
ATOM     39  C   UNL     1      -6.710  20.510  64.173  0.00  0.00    +0.072 C 
BRANCH  39  40
ATOM     40  C   UNL     1      -5.567  20.919  63.267  0.00  0.00    +0.016 C 
ATOM     41  C   UNL     1      -5.711  20.255  61.869  0.00  0.00    +0.001 C 
ATOM     42  C   UNL     1      -6.047  21.741  62.048  0.00  0.00    +0.001 C 
ENDBRANCH  39  40
ENDBRANCH   5  39
TORSDOF 6
ENDMDL
MODEL 2
REMARK VINA RESULT:      -9.2      2.935      8.728
REMARK  Name = 
REMARK  6 active torsions:
REMARK  status: ('A' for Active; 'I' for Inactive)
REMARK    1  A    between atoms: C_2  and  N_4
REMARK    2  A    between atoms: C_2  and  C_32
REMARK    3  A    between atoms: C_5  and  C_7
REMARK    4  A    between atoms: N_21  and  C_22
REMARK    5  A    between atoms: C_22  and  C_23
REMARK    6  A    between atoms: C_34  and  C_35
REMARK                            x       y       z     vdW  Elec       q    Type
REMARK                         _______ _______ _______ _____ _____    ______ ____
ROOT
ATOM      1  C   UNL     1      -8.764  14.330  68.321  0.00  0.00    +0.074 C 
ATOM      2  C   UNL     1      -8.952  12.966  67.711  0.00  0.00    +0.066 C 
ATOM      3  C   UNL     1      -9.996  13.339  66.694  0.00  0.00    +0.152 C 
ATOM      4  C   UNL     1     -10.105  11.911  65.907  0.00  0.00    +0.091 C 
ATOM      5  N   UNL     1     -10.847  12.582  64.697  0.00  0.00    -0.271 NA
ATOM      6  C   UNL     1     -12.134  12.906  65.030  0.00  0.00    +0.073 C 
ATOM      7  C   UNL     1     -12.249  14.015  66.060  0.00  0.00    +0.028 C 
ATOM      8  C   UNL     1     -11.475  11.331  66.621  0.00  0.00    +0.045 C 
ATOM      9  C   UNL     1     -11.297  11.623  68.086  0.00  0.00    -0.021 A 
ATOM     10  C   UNL     1     -11.773  10.801  69.101  0.00  0.00    -0.001 A 
ATOM     11  C   UNL     1     -12.161  11.393  70.308  0.00  0.00    +0.045 A 
ATOM     12  C   UNL     1     -12.222  12.780  70.440  0.00  0.00    +0.229 A 
ATOM     13  C   UNL     1     -11.833  13.615  69.399  0.00  0.00    +0.174 A 
ATOM     14  O   UNL     1     -12.170  14.911  68.966  0.00  0.00    -0.468 OA
ATOM     15  C   UNL     1     -11.062  15.202  67.908  0.00  0.00    +0.232 C 
ATOM     16  O   UNL     1     -12.806  13.400  71.548  0.00  0.00    -0.283 OA
ATOM     17  C   UNL     1     -11.703  12.934  68.244  0.00  0.00    +0.017 A 
ATOM     18  O   UNL     1      -9.356  14.179  65.768  0.00  0.00    -0.223 OA
ATOM     19  C   UNL     1     -11.286  13.761  67.146  0.00  0.00    +0.094 C 
ATOM     20  C   UNL     1      -9.876  14.695  68.907  0.00  0.00    +0.214 C 
ATOM     21  O   UNL     1      -9.722  15.636  69.934  0.00  0.00    -0.288 OA
ENDROOT
BRANCH   1  23
ATOM     22  N   UNL     1      -6.568  14.745  69.517  0.00  0.00    -0.196 NA
ATOM     23  C   UNL     1      -7.455  14.911  68.409  0.00  0.00    +0.264 C 
ATOM     24  O   UNL     1      -7.279  16.042  67.849  0.00  0.00    -0.269 OA
BRANCH  22  26
ATOM     25  C   UNL     1      -5.044  14.856  68.524  0.00  0.00    +0.031 C 
ATOM     26  C   UNL     1      -5.175  14.964  69.417  0.00  0.00    +0.150 C 
ATOM     27  C   UNL     1      -4.498  13.912  70.281  0.00  0.00    +0.031 C 
BRANCH  26  28
ATOM     28  C   UNL     1      -4.789  16.306  69.930  0.00  0.00    +0.254 A 
ATOM     29  O   UNL     1      -4.926  16.681  71.191  0.00  0.00    -0.335 OA
ATOM     30  N   UNL     1      -5.204  17.961  71.247  0.00  0.00    -0.056 NA
ATOM     31  C   UNL     1      -5.132  18.487  69.998  0.00  0.00    +0.203 A 
ATOM     32  N   UNL     1      -4.591  17.470  69.279  0.00  0.00    -0.189 NA
BRANCH  31  33
ATOM     33  C   UNL     1      -5.915  19.626  69.483  0.00  0.00    +0.039 A 
ATOM     34  C   UNL     1      -5.234  20.592  68.752  0.00  0.00    +0.003 A 
ATOM     35  C   UNL     1      -5.839  21.286  67.711  0.00  0.00    +0.000 A 
ATOM     36  C   UNL     1      -6.936  20.717  67.076  0.00  0.00    +0.000 A 
ATOM     37  C   UNL     1      -7.695  19.861  67.862  0.00  0.00    +0.000 A 
ATOM     38  C   UNL     1      -7.241  19.451  69.106  0.00  0.00    +0.003 A 
ENDBRANCH  31  33
ENDBRANCH  26  28
ENDBRANCH  22  26
ENDBRANCH   1  23
BRANCH   5  39
ATOM     39  C   UNL     1     -10.465  11.982  63.511  0.00  0.00    +0.072 C 
BRANCH  39  40
ATOM     40  C   UNL     1      -9.300  11.015  63.589  0.00  0.00    +0.016 C 
ATOM     41  C   UNL     1      -9.485   9.852  62.574  0.00  0.00    +0.001 C 
ATOM     42  C   UNL     1      -8.481  10.974  62.278  0.00  0.00    +0.001 C 
ENDBRANCH  39  40
ENDBRANCH   5  39
TORSDOF 6
ENDMDL
MODEL 3
REMARK VINA RESULT:      -9.0      2.871      8.997
REMARK  Name = 
REMARK  6 active torsions:
REMARK  status: ('A' for Active; 'I' for Inactive)
REMARK    1  A    between atoms: C_2  and  N_4
REMARK    2  A    between atoms: C_2  and  C_32
REMARK    3  A    between atoms: C_5  and  C_7
REMARK    4  A    between atoms: N_21  and  C_22
REMARK    5  A    between atoms: C_22  and  C_23
REMARK    6  A    between atoms: C_34  and  C_35
REMARK                            x       y       z     vdW  Elec       q    Type
REMARK                         _______ _______ _______ _____ _____    ______ ____
ROOT
ATOM      1  C   UNL     1      -8.998  14.585  67.917  0.00  0.00    +0.074 C 
ATOM      2  C   UNL     1      -8.982  13.187  67.359  0.00  0.00    +0.066 C 
ATOM      3  C   UNL     1     -10.113  13.345  66.380  0.00  0.00    +0.152 C 
ATOM      4  C   UNL     1     -10.015  11.889  65.643  0.00  0.00    +0.091 C 
ATOM      5  N   UNL     1     -10.905  12.382  64.448  0.00  0.00    -0.271 NA
ATOM      6  C   UNL     1     -12.215  12.503  64.830  0.00  0.00    +0.073 C 
ATOM      7  C   UNL     1     -12.470  13.617  65.829  0.00  0.00    +0.028 C 
ATOM      8  C   UNL     1     -11.240  11.120  66.437  0.00  0.00    +0.045 C 
ATOM      9  C   UNL     1     -11.055  11.492  67.882  0.00  0.00    -0.021 A 
ATOM     10  C   UNL     1     -11.347  10.642  68.943  0.00  0.00    -0.001 A 
ATOM     11  C   UNL     1     -11.779  11.207  70.148  0.00  0.00    +0.045 A 
ATOM     12  C   UNL     1     -12.063  12.570  70.239  0.00  0.00    +0.229 A 
ATOM     13  C   UNL     1     -11.860  13.417  69.156  0.00  0.00    +0.174 A 
ATOM     14  O   UNL     1     -12.424  14.623  68.700  0.00  0.00    -0.468 OA
ATOM     15  C   UNL     1     -11.423  15.051  67.584  0.00  0.00    +0.232 C 
ATOM     16  O   UNL     1     -12.697  13.127  71.354  0.00  0.00    -0.283 OA
ATOM     17  C   UNL     1     -11.665  12.724  68.019  0.00  0.00    +0.017 A 
ATOM     18  O   UNL     1      -9.659  14.242  65.400  0.00  0.00    -0.223 OA
ATOM     19  C   UNL     1     -11.435  13.566  66.878  0.00  0.00    +0.094 C 
ATOM     20  C   UNL     1     -10.130  14.784  68.542  0.00  0.00    +0.214 C 
ATOM     21  O   UNL     1     -10.093  15.777  69.532  0.00  0.00    -0.288 OA
ENDROOT
BRANCH   1  23
ATOM     22  N   UNL     1      -7.333  16.152  66.822  0.00  0.00    -0.196 NA
ATOM     23  C   UNL     1      -7.800  15.376  67.927  0.00  0.00    +0.264 C 
ATOM     24  O   UNL     1      -6.826  14.951  68.631  0.00  0.00    -0.269 OA
BRANCH  22  26
ATOM     25  C   UNL     1      -6.529  17.660  66.188  0.00  0.00    +0.031 C 
ATOM     26  C   UNL     1      -6.415  17.217  66.973  0.00  0.00    +0.150 C 
ATOM     27  C   UNL     1      -5.039  16.594  67.147  0.00  0.00    +0.031 C 
BRANCH  26  28
ATOM     28  C   UNL     1      -6.711  18.034  68.181  0.00  0.00    +0.254 A 
ATOM     29  O   UNL     1      -7.644  18.969  68.228  0.00  0.00    -0.335 OA
ATOM     30  N   UNL     1      -7.262  19.939  69.023  0.00  0.00    -0.056 NA
ATOM     31  C   UNL     1      -6.095  19.591  69.621  0.00  0.00    +0.203 A 
ATOM     32  N   UNL     1      -5.964  18.285  69.274  0.00  0.00    -0.189 NA
BRANCH  31  33
ATOM     33  C   UNL     1      -5.028  20.512  70.057  0.00  0.00    +0.039 A 
ATOM     34  C   UNL     1      -4.717  20.534  71.411  0.00  0.00    +0.003 A 
ATOM     35  C   UNL     1      -3.425  20.779  71.862  0.00  0.00    +0.000 A 
ATOM     36  C   UNL     1      -2.359  20.532  71.006  0.00  0.00    +0.000 A 
ATOM     37  C   UNL     1      -2.647  20.654  69.654  0.00  0.00    +0.000 A 
ATOM     38  C   UNL     1      -3.956  20.789  69.217  0.00  0.00    +0.003 A 
ENDBRANCH  31  33
ENDBRANCH  26  28
ENDBRANCH  22  26
ENDBRANCH   1  23
BRANCH   5  39
ATOM     39  C   UNL     1     -10.477  11.809  63.265  0.00  0.00    +0.072 C 
BRANCH  39  40
ATOM     40  C   UNL     1      -9.248  10.927  63.349  0.00  0.00    +0.016 C 
ATOM     41  C   UNL     1      -9.343   9.756  62.330  0.00  0.00    +0.001 C 
ATOM     42  C   UNL     1      -8.418  10.947  62.045  0.00  0.00    +0.001 C 
ENDBRANCH  39  40
ENDBRANCH   5  39
TORSDOF 6
ENDMDL
MODEL 4
REMARK VINA RESULT:      -9.0      2.062      2.606
REMARK  Name = 
REMARK  6 active torsions:
REMARK  status: ('A' for Active; 'I' for Inactive)
REMARK    1  A    between atoms: C_2  and  N_4
REMARK    2  A    between atoms: C_2  and  C_32
REMARK    3  A    between atoms: C_5  and  C_7
REMARK    4  A    between atoms: N_21  and  C_22
REMARK    5  A    between atoms: C_22  and  C_23
REMARK    6  A    between atoms: C_34  and  C_35
REMARK                            x       y       z     vdW  Elec       q    Type
REMARK                         _______ _______ _______ _____ _____    ______ ____
ROOT
ATOM      1  C   UNL     1      -8.151  16.928  67.530  0.00  0.00    +0.074 C 
ATOM      2  C   UNL     1      -8.122  18.412  67.283  0.00  0.00    +0.066 C 
ATOM      3  C   UNL     1      -6.864  18.458  66.461  0.00  0.00    +0.152 C 
ATOM      4  C   UNL     1      -6.892  20.037  66.043  0.00  0.00    +0.091 C 
ATOM      5  N   UNL     1      -5.834  19.803  64.907  0.00  0.00    -0.271 NA
ATOM      6  C   UNL     1      -4.588  19.595  65.434  0.00  0.00    +0.073 C 
ATOM      7  C   UNL     1      -4.447  18.292  66.201  0.00  0.00    +0.028 C 
ATOM      8  C   UNL     1      -5.806  20.612  67.145  0.00  0.00    +0.045 C 
ATOM      9  C   UNL     1      -6.180  19.942  68.438  0.00  0.00    -0.021 A 
ATOM     10  C   UNL     1      -6.057  20.545  69.685  0.00  0.00    -0.001 A 
ATOM     11  C   UNL     1      -5.783  19.733  70.791  0.00  0.00    +0.045 A 
ATOM     12  C   UNL     1      -5.483  18.381  70.631  0.00  0.00    +0.229 A 
ATOM     13  C   UNL     1      -5.515  17.784  69.376  0.00  0.00    +0.174 A 
ATOM     14  O   UNL     1      -4.866  16.699  68.759  0.00  0.00    -0.468 OA
ATOM     15  C   UNL     1      -5.694  16.525  67.448  0.00  0.00    +0.232 C 
ATOM     16  O   UNL     1      -4.997  17.595  71.680  0.00  0.00    -0.283 OA
ATOM     17  C   UNL     1      -5.567  18.705  68.395  0.00  0.00    +0.017 A 
ATOM     18  O   UNL     1      -7.157  17.793  65.260  0.00  0.00    -0.223 OA
ATOM     19  C   UNL     1      -5.618  18.127  67.081  0.00  0.00    +0.094 C 
ATOM     20  C   UNL     1      -7.112  16.591  68.251  0.00  0.00    +0.214 C 
ATOM     21  O   UNL     1      -7.263  15.412  68.993  0.00  0.00    -0.288 OA
ENDROOT
BRANCH   1  23
ATOM     22  N   UNL     1      -9.306  14.930  66.479  0.00  0.00    -0.196 NA
ATOM     23  C   UNL     1      -9.321  16.161  67.205  0.00  0.00    +0.264 C 
ATOM     24  O   UNL     1     -10.400  16.805  66.991  0.00  0.00    -0.269 OA
BRANCH  22  26
ATOM     25  C   UNL     1     -10.037  13.321  66.033  0.00  0.00    +0.031 C 
ATOM     26  C   UNL     1     -10.375  14.006  66.526  0.00  0.00    +0.150 C 
ATOM     27  C   UNL     1     -11.580  14.691  65.902  0.00  0.00    +0.031 C 
BRANCH  26  28
ATOM     28  C   UNL     1     -10.724  13.635  67.924  0.00  0.00    +0.254 A 
ATOM     29  O   UNL     1     -11.579  12.678  68.241  0.00  0.00    -0.335 OA
ATOM     30  N   UNL     1     -12.218  12.999  69.340  0.00  0.00    -0.056 NA
ATOM     31  C   UNL     1     -11.694  14.146  69.841  0.00  0.00    +0.203 A 
ATOM     32  N   UNL     1     -10.588  14.325  69.074  0.00  0.00    -0.189 NA
BRANCH  31  33
ATOM     33  C   UNL     1     -12.415  15.169  70.621  0.00  0.00    +0.039 A 
ATOM     34  C   UNL     1     -13.678  14.838  71.098  0.00  0.00    +0.003 A 
ATOM     35  C   UNL     1     -14.163  15.338  72.300  0.00  0.00    +0.000 A 
ATOM     36  C   UNL     1     -13.255  15.771  73.259  0.00  0.00    +0.000 A 
ATOM     37  C   UNL     1     -12.046  16.236  72.761  0.00  0.00    +0.000 A 
ATOM     38  C   UNL     1     -11.714  16.058  71.427  0.00  0.00    +0.003 A 
ENDBRANCH  31  33
ENDBRANCH  26  28
ENDBRANCH  22  26
ENDBRANCH   1  23
BRANCH   5  39
ATOM     39  C   UNL     1      -6.107  20.618  63.824  0.00  0.00    +0.072 C 
BRANCH  39  40
ATOM     40  C   UNL     1      -5.557  20.169  62.486  0.00  0.00    +0.016 C 
ATOM     41  C   UNL     1      -5.911  21.198  61.375  0.00  0.00    +0.001 C 
ATOM     42  C   UNL     1      -4.484  21.137  61.935  0.00  0.00    +0.001 C 
ENDBRANCH  39  40
ENDBRANCH   5  39
TORSDOF 6
ENDMDL
MODEL 5
REMARK VINA RESULT:      -8.9      2.824      8.640
REMARK  Name = 
REMARK  6 active torsions:
REMARK  status: ('A' for Active; 'I' for Inactive)
REMARK    1  A    between atoms: C_2  and  N_4
REMARK    2  A    between atoms: C_2  and  C_32
REMARK    3  A    between atoms: C_5  and  C_7
REMARK    4  A    between atoms: N_21  and  C_22
REMARK    5  A    between atoms: C_22  and  C_23
REMARK    6  A    between atoms: C_34  and  C_35
REMARK                            x       y       z     vdW  Elec       q    Type
REMARK                         _______ _______ _______ _____ _____    ______ ____
ROOT
ATOM      1  C   UNL     1      -7.726  14.600  67.744  0.00  0.00    +0.074 C 
ATOM      2  C   UNL     1      -8.990  15.411  67.638  0.00  0.00    +0.066 C 
ATOM      3  C   UNL     1      -9.825  14.617  68.604  0.00  0.00    +0.152 C 
ATOM      4  C   UNL     1     -11.154  15.568  68.632  0.00  0.00    +0.091 C 
ATOM      5  N   UNL     1     -11.683  14.870  69.935  0.00  0.00    -0.271 NA
ATOM      6  C   UNL     1     -12.149  13.612  69.662  0.00  0.00    +0.073 C 
ATOM      7  C   UNL     1     -11.071  12.625  69.251  0.00  0.00    +0.028 C 
ATOM      8  C   UNL     1     -12.107  14.703  67.599  0.00  0.00    +0.045 C 
ATOM      9  C   UNL     1     -11.200  14.332  66.458  0.00  0.00    -0.021 A 
ATOM     10  C   UNL     1     -11.622  14.231  65.137  0.00  0.00    -0.001 A 
ATOM     11  C   UNL     1     -10.983  13.305  64.305  0.00  0.00    +0.045 A 
ATOM     12  C   UNL     1     -10.059  12.397  64.820  0.00  0.00    +0.229 A 
ATOM     13  C   UNL     1      -9.694  12.430  66.161  0.00  0.00    +0.174 A 
ATOM     14  O   UNL     1      -9.237  11.491  67.105  0.00  0.00    -0.468 OA
ATOM     15  C   UNL     1      -8.780  12.407  68.282  0.00  0.00    +0.232 C 
ATOM     16  O   UNL     1      -9.566  11.326  64.069  0.00  0.00    -0.283 OA
ATOM     17  C   UNL     1     -10.533  13.199  66.880  0.00  0.00    +0.017 A 
ATOM     18  O   UNL     1      -9.252  14.814  69.870  0.00  0.00    -0.223 OA
ATOM     19  C   UNL     1     -10.179  13.271  68.271  0.00  0.00    +0.094 C 
ATOM     20  C   UNL     1      -7.950  13.395  67.285  0.00  0.00    +0.214 C 
ATOM     21  O   UNL     1      -6.813  12.716  66.826  0.00  0.00    -0.288 OA
ENDROOT
BRANCH   1  23
ATOM     22  N   UNL     1      -5.606  15.832  67.102  0.00  0.00    -0.196 NA
ATOM     23  C   UNL     1      -6.480  15.236  68.063  0.00  0.00    +0.264 C 
ATOM     24  O   UNL     1      -5.823  14.772  69.051  0.00  0.00    -0.269 OA
BRANCH  22  26
ATOM     25  C   UNL     1      -4.270  16.983  66.640  0.00  0.00    +0.031 C 
ATOM     26  C   UNL     1      -4.625  16.788  67.454  0.00  0.00    +0.150 C 
ATOM     27  C   UNL     1      -3.662  16.101  68.410  0.00  0.00    +0.031 C 
BRANCH  26  28
ATOM     28  C   UNL     1      -5.220  17.958  68.155  0.00  0.00    +0.254 A 
ATOM     29  O   UNL     1      -5.561  17.957  69.431  0.00  0.00    -0.335 OA
ATOM     30  N   UNL     1      -6.616  18.715  69.610  0.00  0.00    -0.056 NA
ATOM     31  C   UNL     1      -6.919  19.338  68.444  0.00  0.00    +0.203 A 
ATOM     32  N   UNL     1      -5.845  19.047  67.665  0.00  0.00    -0.189 NA
BRANCH  31  33
ATOM     33  C   UNL     1      -8.264  19.746  67.995  0.00  0.00    +0.039 A 
ATOM     34  C   UNL     1      -8.442  19.975  66.636  0.00  0.00    +0.003 A 
ATOM     35  C   UNL     1      -9.649  19.710  66.000  0.00  0.00    +0.000 A 
ATOM     36  C   UNL     1     -10.519  18.789  66.571  0.00  0.00    +0.000 A 
ATOM     37  C   UNL     1     -10.431  18.672  67.951  0.00  0.00    +0.000 A 
ATOM     38  C   UNL     1      -9.394  19.272  68.649  0.00  0.00    +0.003 A 
ENDBRANCH  31  33
ENDBRANCH  26  28
ENDBRANCH  22  26
ENDBRANCH   1  23
BRANCH   5  39
ATOM     39  C   UNL     1     -12.322  15.791  70.743  0.00  0.00    +0.072 C 
BRANCH  39  40
ATOM     40  C   UNL     1     -12.006  15.723  72.224  0.00  0.00    +0.016 C 
ATOM     41  C   UNL     1     -13.283  15.994  73.069  0.00  0.00    +0.001 C 
ATOM     42  C   UNL     1     -12.746  14.563  72.931  0.00  0.00    +0.001 C 
ENDBRANCH  39  40
ENDBRANCH   5  39
TORSDOF 6
ENDMDL
MODEL 6
REMARK VINA RESULT:      -8.9      2.632      5.805
REMARK  Name = 
REMARK  6 active torsions:
REMARK  status: ('A' for Active; 'I' for Inactive)
REMARK    1  A    between atoms: C_2  and  N_4
REMARK    2  A    between atoms: C_2  and  C_32
REMARK    3  A    between atoms: C_5  and  C_7
REMARK    4  A    between atoms: N_21  and  C_22
REMARK    5  A    between atoms: C_22  and  C_23
REMARK    6  A    between atoms: C_34  and  C_35
REMARK                            x       y       z     vdW  Elec       q    Type
REMARK                         _______ _______ _______ _____ _____    ______ ____
ROOT
ATOM      1  C   UNL     1      -8.848  12.913  67.635  0.00  0.00    +0.074 C 
ATOM      2  C   UNL     1      -8.422  14.155  66.898  0.00  0.00    +0.066 C 
ATOM      3  C   UNL     1      -8.929  15.165  67.890  0.00  0.00    +0.152 C 
ATOM      4  C   UNL     1      -8.339  16.522  67.195  0.00  0.00    +0.091 C 
ATOM      5  N   UNL     1      -8.564  17.349  68.510  0.00  0.00    -0.271 NA
ATOM      6  C   UNL     1      -9.896  17.599  68.709  0.00  0.00    +0.073 C 
ATOM      7  C   UNL     1     -10.719  16.364  69.028  0.00  0.00    +0.028 C 
ATOM      8  C   UNL     1      -9.715  17.045  66.450  0.00  0.00    +0.045 C 
ATOM      9  C   UNL     1     -10.307  15.811  65.826  0.00  0.00    -0.021 A 
ATOM     10  C   UNL     1     -11.001  15.811  64.622  0.00  0.00    -0.001 A 
ATOM     11  C   UNL     1     -12.026  14.873  64.445  0.00  0.00    +0.045 A 
ATOM     12  C   UNL     1     -12.449  14.067  65.502  0.00  0.00    +0.229 A 
ATOM     13  C   UNL     1     -11.819  14.121  66.740  0.00  0.00    +0.174 A 
ATOM     14  O   UNL     1     -12.198  13.883  68.074  0.00  0.00    -0.468 OA
ATOM     15  C   UNL     1     -10.822  13.880  68.809  0.00  0.00    +0.232 C 
ATOM     16  O   UNL     1     -13.601  13.280  65.425  0.00  0.00    -0.283 OA
ATOM     17  C   UNL     1     -11.021  15.201  66.839  0.00  0.00    +0.017 A 
ATOM     18  O   UNL     1      -8.139  15.014  69.041  0.00  0.00    -0.223 OA
ATOM     19  C   UNL     1     -10.339  15.284  68.101  0.00  0.00    +0.094 C 
ATOM     20  C   UNL     1     -10.154  12.882  67.705  0.00  0.00    +0.214 C 
ATOM     21  O   UNL     1     -10.708  11.604  67.862  0.00  0.00    -0.288 OA
ENDROOT
BRANCH   1  23
ATOM     22  N   UNL     1      -7.164  11.773  69.148  0.00  0.00    -0.196 NA
ATOM     23  C   UNL     1      -7.895  11.880  67.925  0.00  0.00    +0.264 C 
ATOM     24  O   UNL     1      -7.221  11.416  66.948  0.00  0.00    -0.269 OA
BRANCH  22  26
ATOM     25  C   UNL     1      -6.115  10.843  70.313  0.00  0.00    +0.031 C 
ATOM     26  C   UNL     1      -6.564  10.564  69.574  0.00  0.00    +0.150 C 
ATOM     27  C   UNL     1      -5.671  10.090  68.439  0.00  0.00    +0.031 C 
BRANCH  26  28
ATOM     28  C   UNL     1      -7.578   9.508  69.840  0.00  0.00    +0.254 A 
ATOM     29  O   UNL     1      -8.284   8.910  68.896  0.00  0.00    -0.335 OA
ATOM     30  N   UNL     1      -9.479   8.619  69.351  0.00  0.00    -0.056 NA
ATOM     31  C   UNL     1      -9.538   8.920  70.672  0.00  0.00    +0.203 A 
ATOM     32  N   UNL     1      -8.241   9.195  70.971  0.00  0.00    -0.189 NA
BRANCH  31  33
ATOM     33  C   UNL     1     -10.736   9.347  71.419  0.00  0.00    +0.039 A 
ATOM     34  C   UNL     1     -11.564  10.285  70.816  0.00  0.00    +0.003 A 
ATOM     35  C   UNL     1     -12.940  10.288  71.019  0.00  0.00    +0.000 A 
ATOM     36  C   UNL     1     -13.559   9.109  71.418  0.00  0.00    +0.000 A 
ATOM     37  C   UNL     1     -12.760   8.239  72.145  0.00  0.00    +0.000 A 
ATOM     38  C   UNL     1     -11.395   8.454  72.255  0.00  0.00    +0.003 A 
ENDBRANCH  31  33
ENDBRANCH  26  28
ENDBRANCH  22  26
ENDBRANCH   1  23
BRANCH   5  39
ATOM     39  C   UNL     1      -7.553  18.279  68.668  0.00  0.00    +0.072 C 
BRANCH  39  40
ATOM     40  C   UNL     1      -7.897  19.714  68.322  0.00  0.00    +0.016 C 
ATOM     41  C   UNL     1      -6.605  20.540  68.065  0.00  0.00    +0.001 C 
ATOM     42  C   UNL     1      -7.475  20.091  66.883  0.00  0.00    +0.001 C 
ENDBRANCH  39  40
ENDBRANCH   5  39
TORSDOF 6
ENDMDL
MODEL 7
REMARK VINA RESULT:      -8.9      2.606      8.943
REMARK  Name = 
REMARK  6 active torsions:
REMARK  status: ('A' for Active; 'I' for Inactive)
REMARK    1  A    between atoms: C_2  and  N_4
REMARK    2  A    between atoms: C_2  and  C_32
REMARK    3  A    between atoms: C_5  and  C_7
REMARK    4  A    between atoms: N_21  and  C_22
REMARK    5  A    between atoms: C_22  and  C_23
REMARK    6  A    between atoms: C_34  and  C_35
REMARK                            x       y       z     vdW  Elec       q    Type
REMARK                         _______ _______ _______ _____ _____    ______ ____
ROOT
ATOM      1  C   UNL     1      -8.784  15.093  68.649  0.00  0.00    +0.074 C 
ATOM      2  C   UNL     1      -9.107  13.623  68.620  0.00  0.00    +0.066 C 
ATOM      3  C   UNL     1     -10.019  13.637  67.424  0.00  0.00    +0.152 C 
ATOM      4  C   UNL     1     -10.260  12.028  67.271  0.00  0.00    +0.091 C 
ATOM      5  N   UNL     1     -10.820  12.204  65.815  0.00  0.00    -0.271 NA
ATOM      6  C   UNL     1     -12.074  12.753  65.836  0.00  0.00    +0.073 C 
ATOM      7  C   UNL     1     -12.113  14.194  66.312  0.00  0.00    +0.028 C 
ATOM      8  C   UNL     1     -11.741  11.923  67.991  0.00  0.00    +0.045 C 
ATOM      9  C   UNL     1     -11.629  12.776  69.224  0.00  0.00    -0.021 A 
ATOM     10  C   UNL     1     -12.279  12.494  70.421  0.00  0.00    -0.001 A 
ATOM     11  C   UNL     1     -12.669  13.564  71.234  0.00  0.00    +0.045 A 
ATOM     12  C   UNL     1     -12.556  14.881  70.788  0.00  0.00    +0.229 A 
ATOM     13  C   UNL     1     -11.988  15.172  69.553  0.00  0.00    +0.174 A 
ATOM     14  O   UNL     1     -12.120  16.199  68.600  0.00  0.00    -0.468 OA
ATOM     15  C   UNL     1     -10.912  15.924  67.653  0.00  0.00    +0.232 C 
ATOM     16  O   UNL     1     -13.129  15.954  71.477  0.00  0.00    -0.283 OA
ATOM     17  C   UNL     1     -11.869  14.067  68.794  0.00  0.00    +0.017 A 
ATOM     18  O   UNL     1      -9.211  13.956  66.321  0.00  0.00    -0.223 OA
ATOM     19  C   UNL     1     -11.270  14.324  67.514  0.00  0.00    +0.094 C 
ATOM     20  C   UNL     1      -9.876  15.768  68.903  0.00  0.00    +0.214 C 
ATOM     21  O   UNL     1      -9.671  17.031  69.476  0.00  0.00    -0.288 OA
ENDROOT
BRANCH   1  23
ATOM     22  N   UNL     1      -6.516  15.374  69.745  0.00  0.00    -0.196 NA
ATOM     23  C   UNL     1      -7.419  15.536  68.649  0.00  0.00    +0.264 C 
ATOM     24  O   UNL     1      -7.146  16.588  67.984  0.00  0.00    -0.269 OA
BRANCH  22  26
ATOM     25  C   UNL     1      -5.024  15.235  68.707  0.00  0.00    +0.031 C 
ATOM     26  C   UNL     1      -5.111  15.434  69.589  0.00  0.00    +0.150 C 
ATOM     27  C   UNL     1      -4.518  14.394  70.527  0.00  0.00    +0.031 C 
BRANCH  26  28
ATOM     28  C   UNL     1      -4.569  16.766  69.970  0.00  0.00    +0.254 A 
ATOM     29  O   UNL     1      -4.703  17.300  71.172  0.00  0.00    -0.335 OA
ATOM     30  N   UNL     1      -4.809  18.603  71.070  0.00  0.00    -0.056 NA
ATOM     31  C   UNL     1      -4.620  18.965  69.776  0.00  0.00    +0.203 A 
ATOM     32  N   UNL     1      -4.192  17.809  69.205  0.00  0.00    -0.189 NA
BRANCH  31  33
ATOM     33  C   UNL     1      -5.223  20.127  69.096  0.00  0.00    +0.039 A 
ATOM     34  C   UNL     1      -4.470  20.755  68.112  0.00  0.00    +0.003 A 
ATOM     35  C   UNL     1      -5.061  21.349  67.003  0.00  0.00    +0.000 A 
ATOM     36  C   UNL     1      -6.325  20.926  66.611  0.00  0.00    +0.000 A 
ATOM     37  C   UNL     1      -7.125  20.432  67.632  0.00  0.00    +0.000 A 
ATOM     38  C   UNL     1      -6.596  20.182  68.889  0.00  0.00    +0.003 A 
ENDBRANCH  31  33
ENDBRANCH  26  28
ENDBRANCH  22  26
ENDBRANCH   1  23
BRANCH   5  39
ATOM     39  C   UNL     1     -10.439  11.136  65.024  0.00  0.00    +0.072 C 
BRANCH  39  40
ATOM     40  C   UNL     1      -9.195  10.387  65.457  0.00  0.00    +0.016 C 
ATOM     41  C   UNL     1      -9.525   8.893  65.738  0.00  0.00    +0.001 C 
ATOM     42  C   UNL     1      -8.790   9.285  64.449  0.00  0.00    +0.001 C 
ENDBRANCH  39  40
ENDBRANCH   5  39
TORSDOF 6
ENDMDL
MODEL 8
REMARK VINA RESULT:      -8.8      2.549      9.319
REMARK  Name = 
REMARK  6 active torsions:
REMARK  status: ('A' for Active; 'I' for Inactive)
REMARK    1  A    between atoms: C_2  and  N_4
REMARK    2  A    between atoms: C_2  and  C_32
REMARK    3  A    between atoms: C_5  and  C_7
REMARK    4  A    between atoms: N_21  and  C_22
REMARK    5  A    between atoms: C_22  and  C_23
REMARK    6  A    between atoms: C_34  and  C_35
REMARK                            x       y       z     vdW  Elec       q    Type
REMARK                         _______ _______ _______ _____ _____    ______ ____
ROOT
ATOM      1  C   UNL     1      -8.929  14.500  68.145  0.00  0.00    +0.074 C 
ATOM      2  C   UNL     1      -8.979  13.120  67.548  0.00  0.00    +0.066 C 
ATOM      3  C   UNL     1     -10.080  13.367  66.553  0.00  0.00    +0.152 C 
ATOM      4  C   UNL     1     -10.048  11.929  65.777  0.00  0.00    +0.091 C 
ATOM      5  N   UNL     1     -10.886  12.504  64.581  0.00  0.00    -0.271 NA
ATOM      6  C   UNL     1     -12.194  12.687  64.942  0.00  0.00    +0.073 C 
ATOM      7  C   UNL     1     -12.407  13.785  65.968  0.00  0.00    +0.028 C 
ATOM      8  C   UNL     1     -11.329  11.208  66.526  0.00  0.00    +0.045 C 
ATOM      9  C   UNL     1     -11.153  11.530  67.985  0.00  0.00    -0.021 A 
ATOM     10  C   UNL     1     -11.512  10.668  69.015  0.00  0.00    -0.001 A 
ATOM     11  C   UNL     1     -11.936  11.224  70.228  0.00  0.00    +0.045 A 
ATOM     12  C   UNL     1     -12.146  12.597  70.353  0.00  0.00    +0.229 A 
ATOM     13  C   UNL     1     -11.875  13.461  69.298  0.00  0.00    +0.174 A 
ATOM     14  O   UNL     1     -12.363  14.709  68.866  0.00  0.00    -0.468 OA
ATOM     15  C   UNL     1     -11.317  15.111  67.781  0.00  0.00    +0.232 C 
ATOM     16  O   UNL     1     -12.770  13.158  71.471  0.00  0.00    -0.283 OA
ATOM     17  C   UNL     1     -11.697  12.789  68.145  0.00  0.00    +0.017 A 
ATOM     18  O   UNL     1      -9.558  14.264  65.608  0.00  0.00    -0.223 OA
ATOM     19  C   UNL     1     -11.398  13.648  67.033  0.00  0.00    +0.094 C 
ATOM     20  C   UNL     1     -10.060  14.746  68.755  0.00  0.00    +0.214 C 
ATOM     21  O   UNL     1      -9.988  15.707  69.773  0.00  0.00    -0.288 OA
ENDROOT
BRANCH   1  23
ATOM     22  N   UNL     1      -7.316  16.259  67.289  0.00  0.00    -0.196 NA
ATOM     23  C   UNL     1      -7.690  15.223  68.200  0.00  0.00    +0.264 C 
ATOM     24  O   UNL     1      -6.665  14.593  68.621  0.00  0.00    -0.269 OA
BRANCH  22  26
ATOM     25  C   UNL     1      -5.572  16.791  67.288  0.00  0.00    +0.031 C 
ATOM     26  C   UNL     1      -6.317  17.214  67.591  0.00  0.00    +0.150 C 
ATOM     27  C   UNL     1      -6.349  17.427  69.096  0.00  0.00    +0.031 C 
BRANCH  26  28
ATOM     28  C   UNL     1      -6.586  18.521  66.932  0.00  0.00    +0.254 A 
ATOM     29  O   UNL     1      -7.751  18.854  66.404  0.00  0.00    -0.335 OA
ATOM     30  N   UNL     1      -7.561  19.619  65.356  0.00  0.00    -0.056 NA
ATOM     31  C   UNL     1      -6.240  19.906  65.247  0.00  0.00    +0.203 A 
ATOM     32  N   UNL     1      -5.737  19.432  66.416  0.00  0.00    -0.189 NA
BRANCH  31  33
ATOM     33  C   UNL     1      -5.501  20.163  63.996  0.00  0.00    +0.039 A 
ATOM     34  C   UNL     1      -5.135  19.062  63.232  0.00  0.00    +0.003 A 
ATOM     35  C   UNL     1      -5.066  19.121  61.845  0.00  0.00    +0.000 A 
ATOM     36  C   UNL     1      -5.805  20.093  61.180  0.00  0.00    +0.000 A 
ATOM     37  C   UNL     1      -6.044  21.252  61.904  0.00  0.00    +0.000 A 
ATOM     38  C   UNL     1      -5.753  21.314  63.259  0.00  0.00    +0.003 A 
ENDBRANCH  31  33
ENDBRANCH  26  28
ENDBRANCH  22  26
ENDBRANCH   1  23
BRANCH   5  39
ATOM     39  C   UNL     1     -10.467  11.940  63.390  0.00  0.00    +0.072 C 
BRANCH  39  40
ATOM     40  C   UNL     1      -9.199  11.111  63.446  0.00  0.00    +0.016 C 
ATOM     41  C   UNL     1      -9.377   9.785  62.653  0.00  0.00    +0.001 C 
ATOM     42  C   UNL     1      -8.552  10.931  62.052  0.00  0.00    +0.001 C 
ENDBRANCH  39  40
ENDBRANCH   5  39
TORSDOF 6
ENDMDL
MODEL 9
REMARK VINA RESULT:      -8.8      1.797      4.553
REMARK  Name = 
REMARK  6 active torsions:
REMARK  status: ('A' for Active; 'I' for Inactive)
REMARK    1  A    between atoms: C_2  and  N_4
REMARK    2  A    between atoms: C_2  and  C_32
REMARK    3  A    between atoms: C_5  and  C_7
REMARK    4  A    between atoms: N_21  and  C_22
REMARK    5  A    between atoms: C_22  and  C_23
REMARK    6  A    between atoms: C_34  and  C_35
REMARK                            x       y       z     vdW  Elec       q    Type
REMARK                         _______ _______ _______ _____ _____    ______ ____
ROOT
ATOM      1  C   UNL     1      -8.493  16.638  66.785  0.00  0.00    +0.074 C 
ATOM      2  C   UNL     1      -7.070  16.202  67.011  0.00  0.00    +0.066 C 
ATOM      3  C   UNL     1      -6.789  17.043  68.226  0.00  0.00    +0.152 C 
ATOM      4  C   UNL     1      -5.302  16.472  68.592  0.00  0.00    +0.091 C 
ATOM      5  N   UNL     1      -5.366  17.094  70.032  0.00  0.00    -0.271 NA
ATOM      6  C   UNL     1      -5.225  18.455  69.983  0.00  0.00    +0.073 C 
ATOM      7  C   UNL     1      -6.389  19.178  69.329  0.00  0.00    +0.028 C 
ATOM      8  C   UNL     1      -4.396  17.687  67.941  0.00  0.00    +0.045 C 
ATOM      9  C   UNL     1      -5.029  17.967  66.606  0.00  0.00    -0.021 A 
ATOM     10  C   UNL     1      -4.315  18.355  65.479  0.00  0.00    -0.001 A 
ATOM     11  C   UNL     1      -4.944  19.192  64.549  0.00  0.00    +0.045 A 
ATOM     12  C   UNL     1      -6.193  19.751  64.819  0.00  0.00    +0.229 A 
ATOM     13  C   UNL     1      -6.879  19.440  65.987  0.00  0.00    +0.174 A 
ATOM     14  O   UNL     1      -7.823  20.088  66.805  0.00  0.00    -0.468 OA
ATOM     15  C   UNL     1      -8.297  18.932  67.738  0.00  0.00    +0.232 C 
ATOM     16  O   UNL     1      -6.751  20.752  64.019  0.00  0.00    -0.283 OA
ATOM     17  C   UNL     1      -6.081  18.820  66.876  0.00  0.00    +0.017 A 
ATOM     18  O   UNL     1      -7.601  16.531  69.252  0.00  0.00    -0.223 OA
ATOM     19  C   UNL     1      -6.760  18.467  68.092  0.00  0.00    +0.094 C 
ATOM     20  C   UNL     1      -8.509  17.911  66.484  0.00  0.00    +0.214 C 
ATOM     21  O   UNL     1      -9.626  18.331  65.748  0.00  0.00    -0.288 OA
ENDROOT
BRANCH   1  23
ATOM     22  N   UNL     1     -10.025  14.875  67.771  0.00  0.00    -0.196 NA
ATOM     23  C   UNL     1      -9.542  15.664  66.681  0.00  0.00    +0.264 C 
ATOM     24  O   UNL     1      -9.646  15.033  65.579  0.00  0.00    -0.269 OA
BRANCH  22  26
ATOM     25  C   UNL     1     -11.608  14.511  66.942  0.00  0.00    +0.031 C 
ATOM     26  C   UNL     1     -11.292  14.246  67.752  0.00  0.00    +0.150 C 
ATOM     27  C   UNL     1     -12.073  14.789  68.938  0.00  0.00    +0.031 C 
BRANCH  26  28
ATOM     28  C   UNL     1     -11.178  12.770  67.907  0.00  0.00    +0.254 A 
ATOM     29  O   UNL     1     -12.020  11.906  67.369  0.00  0.00    -0.335 OA
ATOM     30  N   UNL     1     -12.155  10.866  68.158  0.00  0.00    -0.056 NA
ATOM     31  C   UNL     1     -11.288  10.980  69.195  0.00  0.00    +0.203 A 
ATOM     32  N   UNL     1     -10.517  12.034  68.823  0.00  0.00    -0.189 NA
BRANCH  31  33
ATOM     33  C   UNL     1     -11.485  10.455  70.560  0.00  0.00    +0.039 A 
ATOM     34  C   UNL     1     -12.728  10.652  71.148  0.00  0.00    +0.003 A 
ATOM     35  C   UNL     1     -13.275   9.732  72.034  0.00  0.00    +0.000 A 
ATOM     36  C   UNL     1     -12.838   8.414  71.984  0.00  0.00    +0.000 A 
ATOM     37  C   UNL     1     -11.539   8.239  71.529  0.00  0.00    +0.000 A 
ATOM     38  C   UNL     1     -10.838   9.293  70.963  0.00  0.00    +0.003 A 
ENDBRANCH  31  33
ENDBRANCH  26  28
ENDBRANCH  22  26
ENDBRANCH   1  23
BRANCH   5  39
ATOM     39  C   UNL     1      -4.732  16.266  70.939  0.00  0.00    +0.072 C 
BRANCH  39  40
ATOM     40  C   UNL     1      -4.666  14.796  70.578  0.00  0.00    +0.016 C 
ATOM     41  C   UNL     1      -4.165  13.957  71.787  0.00  0.00    +0.001 C 
ATOM     42  C   UNL     1      -5.652  13.941  71.409  0.00  0.00    +0.001 C 
ENDBRANCH  39  40
ENDBRANCH   5  39
TORSDOF 6
ENDMDL
