MODEL 1
REMARK VINA RESULT:      -7.0      0.000      0.000
REMARK  Name = 
REMARK  2 active torsions:
REMARK  status: ('A' for Active; 'I' for Inactive)
REMARK    1  A    between atoms: N_2  and  C_3
REMARK    2  A    between atoms: C_6  and  C_7
REMARK                            x       y       z     vdW  Elec       q    Type
REMARK                         _______ _______ _______ _____ _____    ______ ____
ROOT
ATOM      1  C   UNL     1     -10.970  14.177  68.742  0.00  0.00    +0.111 A 
ATOM      2  S   UNL     1     -10.588  15.583  69.657  0.00  0.00    -0.066 S 
ATOM      3  C   UNL     1     -11.704  15.357  70.944  0.00  0.00    +0.052 A 
ATOM      4  C   UNL     1     -12.144  14.074  70.639  0.00  0.00    +0.088 A 
ATOM      5  C   UNL     1     -12.918  13.456  71.616  0.00  0.00    +0.023 A 
ATOM      6  C   UNL     1     -13.583  14.240  72.549  0.00  0.00    +0.044 A 
ATOM      7  C   UNL     1     -13.233  15.564  72.782  0.00  0.00    +0.196 A 
ATOM      8  O   UNL     1     -14.174  16.468  73.287  0.00  0.00    -0.287 OA
ATOM      9  C   UNL     1     -12.102  16.006  72.105  0.00  0.00    +0.050 A 
ATOM     10  N   UNL     1     -12.154  13.858  69.322  0.00  0.00    -0.238 NA
ENDROOT
BRANCH   1  15
ATOM     11  C   UNL     1     -11.771  13.466  64.762  0.00  0.00    +0.093 A 
ATOM     12  C   UNL     1     -11.439  14.755  65.164  0.00  0.00    +0.155 A 
ATOM     13  F   UNL     1     -11.877  15.758  64.363  0.00  0.00    -0.203 F 
ATOM     14  C   UNL     1     -10.827  14.977  66.381  0.00  0.00    +0.033 A 
ATOM     15  C   UNL     1     -10.709  13.952  67.313  0.00  0.00    +0.026 A 
ATOM     16  C   UNL     1     -10.973  12.680  66.824  0.00  0.00    +0.003 A 
ATOM     17  C   UNL     1     -11.138  12.448  65.464  0.00  0.00    +0.018 A 
BRANCH  11  19
ATOM     18  C   UNL     1     -12.612  11.808  63.179  0.00  0.00    +0.136 C 
ATOM     19  N   UNL     1     -12.265  13.196  63.447  0.00  0.00    -0.233 NA
ENDBRANCH  11  19
ENDBRANCH   1  15
TORSDOF 2
ENDMDL
MODEL 2
REMARK VINA RESULT:      -6.8      3.748      7.230
REMARK  Name = 
REMARK  2 active torsions:
REMARK  status: ('A' for Active; 'I' for Inactive)
REMARK    1  A    between atoms: N_2  and  C_3
REMARK    2  A    between atoms: C_6  and  C_7
REMARK                            x       y       z     vdW  Elec       q    Type
REMARK                         _______ _______ _______ _____ _____    ______ ____
ROOT
ATOM      1  C   UNL     1     -11.301  14.272  67.859  0.00  0.00    +0.111 A 
ATOM      2  S   UNL     1      -9.894  14.296  66.871  0.00  0.00    -0.066 S 
ATOM      3  C   UNL     1     -10.507  13.405  65.536  0.00  0.00    +0.052 A 
ATOM      4  C   UNL     1     -11.847  13.339  65.906  0.00  0.00    +0.088 A 
ATOM      5  C   UNL     1     -12.716  12.862  64.929  0.00  0.00    +0.023 A 
ATOM      6  C   UNL     1     -12.215  12.074  63.902  0.00  0.00    +0.044 A 
ATOM      7  C   UNL     1     -10.860  12.038  63.596  0.00  0.00    +0.196 A 
ATOM      8  O   UNL     1     -10.305  10.917  62.969  0.00  0.00    -0.287 OA
ATOM      9  C   UNL     1     -10.067  12.930  64.308  0.00  0.00    +0.050 A 
ATOM     10  N   UNL     1     -11.989  13.285  67.231  0.00  0.00    -0.238 NA
ENDROOT
BRANCH   1  15
ATOM     11  C   UNL     1     -12.829  15.423  71.510  0.00  0.00    +0.093 A 
ATOM     12  C   UNL     1     -12.864  14.079  71.157  0.00  0.00    +0.155 A 
ATOM     13  F   UNL     1     -13.815  13.329  71.770  0.00  0.00    -0.203 F 
ATOM     14  C   UNL     1     -12.069  13.598  70.138  0.00  0.00    +0.033 A 
ATOM     15  C   UNL     1     -11.365  14.470  69.315  0.00  0.00    +0.026 A 
ATOM     16  C   UNL     1     -11.296  15.780  69.769  0.00  0.00    +0.003 A 
ATOM     17  C   UNL     1     -11.724  16.126  71.045  0.00  0.00    +0.018 A 
BRANCH  11  19
ATOM     18  C   UNL     1     -12.783  15.884  73.908  0.00  0.00    +0.136 C 
ATOM     19  N   UNL     1     -13.528  15.915  72.658  0.00  0.00    -0.233 NA
ENDBRANCH  11  19
ENDBRANCH   1  15
TORSDOF 2
ENDMDL
MODEL 3
REMARK VINA RESULT:      -6.5      4.664      7.257
REMARK  Name = 
REMARK  2 active torsions:
REMARK  status: ('A' for Active; 'I' for Inactive)
REMARK    1  A    between atoms: N_2  and  C_3
REMARK    2  A    between atoms: C_6  and  C_7
REMARK                            x       y       z     vdW  Elec       q    Type
REMARK                         _______ _______ _______ _____ _____    ______ ____
ROOT
ATOM      1  C   UNL     1     -11.110  11.652  68.732  0.00  0.00    +0.111 A 
ATOM      2  S   UNL     1     -10.886  10.786  67.263  0.00  0.00    -0.066 S 
ATOM      3  C   UNL     1     -11.227  12.063  66.164  0.00  0.00    +0.052 A 
ATOM      4  C   UNL     1     -11.291  13.123  67.062  0.00  0.00    +0.088 A 
ATOM      5  C   UNL     1     -11.337  14.391  66.492  0.00  0.00    +0.023 A 
ATOM      6  C   UNL     1     -11.782  14.530  65.184  0.00  0.00    +0.044 A 
ATOM      7  C   UNL     1     -11.837  13.454  64.306  0.00  0.00    +0.196 A 
ATOM      8  O   UNL     1     -12.733  13.461  63.231  0.00  0.00    -0.287 OA
ATOM      9  C   UNL     1     -11.307  12.265  64.792  0.00  0.00    +0.050 A 
ATOM     10  N   UNL     1     -11.767  12.735  68.247  0.00  0.00    -0.238 NA
ENDROOT
BRANCH   1  15
ATOM     11  C   UNL     1     -13.099   9.511  71.639  0.00  0.00    +0.093 A 
ATOM     12  C   UNL     1     -11.947   8.975  71.075  0.00  0.00    +0.155 A 
ATOM     13  F   UNL     1     -11.831   7.624  71.132  0.00  0.00    -0.203 F 
ATOM     14  C   UNL     1     -11.064   9.777  70.380  0.00  0.00    +0.033 A 
ATOM     15  C   UNL     1     -11.399  11.087  70.058  0.00  0.00    +0.026 A 
ATOM     16  C   UNL     1     -12.511  11.589  70.720  0.00  0.00    +0.003 A 
ATOM     17  C   UNL     1     -13.103  10.894  71.768  0.00  0.00    +0.018 A 
BRANCH  11  19
ATOM     18  C   UNL     1     -14.963   7.943  71.810  0.00  0.00    +0.136 C 
ATOM     19  N   UNL     1     -13.948   8.734  72.489  0.00  0.00    -0.233 NA
ENDBRANCH  11  19
ENDBRANCH   1  15
TORSDOF 2
ENDMDL
MODEL 4
REMARK VINA RESULT:      -6.4      4.497      6.569
REMARK  Name = 
REMARK  2 active torsions:
REMARK  status: ('A' for Active; 'I' for Inactive)
REMARK    1  A    between atoms: N_2  and  C_3
REMARK    2  A    between atoms: C_6  and  C_7
REMARK                            x       y       z     vdW  Elec       q    Type
REMARK                         _______ _______ _______ _____ _____    ______ ____
ROOT
ATOM      1  C   UNL     1     -10.833  16.305  69.278  0.00  0.00    +0.111 A 
ATOM      2  S   UNL     1      -9.177  15.982  68.945  0.00  0.00    -0.066 S 
ATOM      3  C   UNL     1      -8.805  17.427  68.093  0.00  0.00    +0.052 A 
ATOM      4  C   UNL     1      -9.980  18.134  68.324  0.00  0.00    +0.088 A 
ATOM      5  C   UNL     1      -9.955  19.476  67.956  0.00  0.00    +0.023 A 
ATOM      6  C   UNL     1      -9.036  19.901  67.006  0.00  0.00    +0.044 A 
ATOM      7  C   UNL     1      -7.915  19.148  66.676  0.00  0.00    +0.196 A 
ATOM      8  O   UNL     1      -7.311  19.287  65.422  0.00  0.00    -0.287 OA
ATOM      9  C   UNL     1      -7.722  18.006  67.445  0.00  0.00    +0.050 A 
ATOM     10  N   UNL     1     -11.035  17.321  68.403  0.00  0.00    -0.238 NA
ENDROOT
BRANCH   1  15
ATOM     11  C   UNL     1     -12.738  13.237  71.265  0.00  0.00    +0.093 A 
ATOM     12  C   UNL     1     -13.152  14.545  71.488  0.00  0.00    +0.155 A 
ATOM     13  F   UNL     1     -13.777  14.777  72.670  0.00  0.00    -0.203 F 
ATOM     14  C   UNL     1     -12.807  15.552  70.609  0.00  0.00    +0.033 A 
ATOM     15  C   UNL     1     -11.881  15.324  69.598  0.00  0.00    +0.026 A 
ATOM     16  C   UNL     1     -11.575  13.989  69.371  0.00  0.00    +0.003 A 
ATOM     17  C   UNL     1     -12.299  12.969  69.974  0.00  0.00    +0.018 A 
BRANCH  11  19
ATOM     18  C   UNL     1     -12.916  10.821  71.570  0.00  0.00    +0.136 C 
ATOM     19  N   UNL     1     -13.207  12.154  72.075  0.00  0.00    -0.233 NA
ENDBRANCH  11  19
ENDBRANCH   1  15
TORSDOF 2
ENDMDL
MODEL 5
REMARK VINA RESULT:      -6.3      4.949      6.879
REMARK  Name = 
REMARK  2 active torsions:
REMARK  status: ('A' for Active; 'I' for Inactive)
REMARK    1  A    between atoms: N_2  and  C_3
REMARK    2  A    between atoms: C_6  and  C_7
REMARK                            x       y       z     vdW  Elec       q    Type
REMARK                         _______ _______ _______ _____ _____    ______ ____
ROOT
ATOM      1  C   UNL     1      -9.740  16.357  68.078  0.00  0.00    +0.111 A 
ATOM      2  S   UNL     1     -11.305  15.749  68.453  0.00  0.00    -0.066 S 
ATOM      3  C   UNL     1     -11.421  14.569  67.209  0.00  0.00    +0.052 A 
ATOM      4  C   UNL     1     -10.118  14.622  66.726  0.00  0.00    +0.088 A 
ATOM      5  C   UNL     1      -9.770  13.618  65.828  0.00  0.00    +0.023 A 
ATOM      6  C   UNL     1     -10.771  12.961  65.124  0.00  0.00    +0.044 A 
ATOM      7  C   UNL     1     -12.100  12.997  65.528  0.00  0.00    +0.196 A 
ATOM      8  O   UNL     1     -13.129  12.812  64.598  0.00  0.00    -0.287 OA
ATOM      9  C   UNL     1     -12.334  13.633  66.742  0.00  0.00    +0.050 A 
ATOM     10  N   UNL     1      -9.605  15.849  66.828  0.00  0.00    -0.238 NA
ENDROOT
BRANCH   1  15
ATOM     11  C   UNL     1      -7.868  20.004  67.645  0.00  0.00    +0.093 A 
ATOM     12  C   UNL     1      -9.253  19.965  67.760  0.00  0.00    +0.155 A 
ATOM     13  F   UNL     1      -9.922  21.021  67.233  0.00  0.00    -0.203 F 
ATOM     14  C   UNL     1      -9.888  18.844  68.254  0.00  0.00    +0.033 A 
ATOM     15  C   UNL     1      -9.183  17.664  68.460  0.00  0.00    +0.026 A 
ATOM     16  C   UNL     1      -7.801  17.788  68.415  0.00  0.00    +0.003 A 
ATOM     17  C   UNL     1      -7.189  19.035  68.373  0.00  0.00    +0.018 A 
BRANCH  11  19
ATOM     18  C   UNL     1      -5.742  21.197  67.507  0.00  0.00    +0.136 C 
ATOM     19  N   UNL     1      -7.180  21.204  67.281  0.00  0.00    -0.233 NA
ENDBRANCH  11  19
ENDBRANCH   1  15
TORSDOF 2
ENDMDL
MODEL 6
REMARK VINA RESULT:      -6.3      4.404      5.672
REMARK  Name = 
REMARK  2 active torsions:
REMARK  status: ('A' for Active; 'I' for Inactive)
REMARK    1  A    between atoms: N_2  and  C_3
REMARK    2  A    between atoms: C_6  and  C_7
REMARK                            x       y       z     vdW  Elec       q    Type
REMARK                         _______ _______ _______ _____ _____    ______ ____
ROOT
ATOM      1  C   UNL     1     -10.794  16.276  68.646  0.00  0.00    +0.111 A 
ATOM      2  S   UNL     1      -9.091  16.326  68.887  0.00  0.00    -0.066 S 
ATOM      3  C   UNL     1      -8.804  17.923  68.323  0.00  0.00    +0.052 A 
ATOM      4  C   UNL     1     -10.119  18.353  68.181  0.00  0.00    +0.088 A 
ATOM      5  C   UNL     1     -10.284  19.714  67.943  0.00  0.00    +0.023 A 
ATOM      6  C   UNL     1      -9.229  20.440  67.405  0.00  0.00    +0.044 A 
ATOM      7  C   UNL     1      -7.921  19.970  67.433  0.00  0.00    +0.196 A 
ATOM      8  O   UNL     1      -6.993  20.402  66.480  0.00  0.00    -0.287 OA
ATOM      9  C   UNL     1      -7.732  18.786  68.137  0.00  0.00    +0.050 A 
ATOM     10  N   UNL     1     -10.928  17.352  67.830  0.00  0.00    -0.238 NA
ENDROOT
BRANCH   1  15
ATOM     11  C   UNL     1     -11.752  12.288  68.236  0.00  0.00    +0.093 A 
ATOM     12  C   UNL     1     -11.886  12.890  69.482  0.00  0.00    +0.155 A 
ATOM     13  F   UNL     1     -11.830  12.058  70.552  0.00  0.00    -0.203 F 
ATOM     14  C   UNL     1     -11.925  14.264  69.599  0.00  0.00    +0.033 A 
ATOM     15  C   UNL     1     -11.635  15.078  68.510  0.00  0.00    +0.026 A 
ATOM     16  C   UNL     1     -11.600  14.428  67.284  0.00  0.00    +0.003 A 
ATOM     17  C   UNL     1     -12.026  13.112  67.151  0.00  0.00    +0.018 A 
BRANCH  11  19
ATOM     18  C   UNL     1     -10.762  10.234  67.364  0.00  0.00    +0.136 C 
ATOM     19  N   UNL     1     -11.861  10.871  68.073  0.00  0.00    -0.233 NA
ENDBRANCH  11  19
ENDBRANCH   1  15
TORSDOF 2
ENDMDL
MODEL 7
REMARK VINA RESULT:      -6.1      4.430      6.656
REMARK  Name = 
REMARK  2 active torsions:
REMARK  status: ('A' for Active; 'I' for Inactive)
REMARK    1  A    between atoms: N_2  and  C_3
REMARK    2  A    between atoms: C_6  and  C_7
REMARK                            x       y       z     vdW  Elec       q    Type
REMARK                         _______ _______ _______ _____ _____    ______ ____
ROOT
ATOM      1  C   UNL     1     -10.762  11.981  67.901  0.00  0.00    +0.111 A 
ATOM      2  S   UNL     1     -10.471  12.025  66.206  0.00  0.00    -0.066 S 
ATOM      3  C   UNL     1     -10.468  13.731  65.995  0.00  0.00    +0.052 A 
ATOM      4  C   UNL     1     -10.497  14.123  67.329  0.00  0.00    +0.088 A 
ATOM      5  C   UNL     1     -10.278  15.478  67.562  0.00  0.00    +0.023 A 
ATOM      6  C   UNL     1     -10.517  16.387  66.540  0.00  0.00    +0.044 A 
ATOM      7  C   UNL     1     -10.610  15.994  65.210  0.00  0.00    +0.196 A 
ATOM      8  O   UNL     1     -11.341  16.758  64.295  0.00  0.00    -0.287 OA
ATOM      9  C   UNL     1     -10.331  14.654  64.968  0.00  0.00    +0.050 A 
ATOM     10  N   UNL     1     -11.181  13.259  68.082  0.00  0.00    -0.238 NA
ENDROOT
BRANCH   1  15
ATOM     11  C   UNL     1     -11.233   9.365  71.052  0.00  0.00    +0.093 A 
ATOM     12  C   UNL     1     -12.156  10.390  70.881  0.00  0.00    +0.155 A 
ATOM     13  F   UNL     1     -12.832  10.772  71.995  0.00  0.00    -0.203 F 
ATOM     14  C   UNL     1     -12.254  11.057  69.677  0.00  0.00    +0.033 A 
ATOM     15  C   UNL     1     -11.308  10.858  68.678  0.00  0.00    +0.026 A 
ATOM     16  C   UNL     1     -10.472   9.767  68.868  0.00  0.00    +0.003 A 
ATOM     17  C   UNL     1     -10.711   8.840  69.876  0.00  0.00    +0.018 A 
BRANCH  11  19
ATOM     18  C   UNL     1     -11.866   7.264  72.122  0.00  0.00    +0.136 C 
ATOM     19  N   UNL     1     -11.216   8.561  72.235  0.00  0.00    -0.233 NA
ENDBRANCH  11  19
ENDBRANCH   1  15
TORSDOF 2
ENDMDL
MODEL 8
REMARK VINA RESULT:      -6.0      4.018      5.007
REMARK  Name = 
REMARK  2 active torsions:
REMARK  status: ('A' for Active; 'I' for Inactive)
REMARK    1  A    between atoms: N_2  and  C_3
REMARK    2  A    between atoms: C_6  and  C_7
REMARK                            x       y       z     vdW  Elec       q    Type
REMARK                         _______ _______ _______ _____ _____    ______ ____
ROOT
ATOM      1  C   UNL     1     -10.458  15.868  67.863  0.00  0.00    +0.111 A 
ATOM      2  S   UNL     1      -9.041  16.323  68.727  0.00  0.00    -0.066 S 
ATOM      3  C   UNL     1      -8.995  17.981  68.279  0.00  0.00    +0.052 A 
ATOM      4  C   UNL     1     -10.228  18.078  67.643  0.00  0.00    +0.088 A 
ATOM      5  C   UNL     1     -10.643  19.369  67.331  0.00  0.00    +0.023 A 
ATOM      6  C   UNL     1      -9.694  20.376  67.215  0.00  0.00    +0.044 A 
ATOM      7  C   UNL     1      -8.415  20.247  67.743  0.00  0.00    +0.196 A 
ATOM      8  O   UNL     1      -7.349  20.973  67.201  0.00  0.00    -0.287 OA
ATOM      9  C   UNL     1      -8.196  19.097  68.491  0.00  0.00    +0.050 A 
ATOM     10  N   UNL     1     -10.558  16.937  67.034  0.00  0.00    -0.238 NA
ENDROOT
BRANCH   1  15
ATOM     11  C   UNL     1     -11.073  12.655  65.355  0.00  0.00    +0.093 A 
ATOM     12  C   UNL     1      -9.963  12.655  66.193  0.00  0.00    +0.155 A 
ATOM     13  F   UNL     1      -8.919  11.887  65.794  0.00  0.00    -0.203 F 
ATOM     14  C   UNL     1      -9.900  13.506  67.278  0.00  0.00    +0.033 A 
ATOM     15  C   UNL     1     -10.844  14.512  67.446  0.00  0.00    +0.026 A 
ATOM     16  C   UNL     1     -11.968  14.405  66.638  0.00  0.00    +0.003 A 
ATOM     17  C   UNL     1     -12.206  13.266  65.878  0.00  0.00    +0.018 A 
BRANCH  11  19
ATOM     18  C   UNL     1     -12.316  11.929  63.383  0.00  0.00    +0.136 C 
ATOM     19  N   UNL     1     -11.228  11.682  64.318  0.00  0.00    -0.233 NA
ENDBRANCH  11  19
ENDBRANCH   1  15
TORSDOF 2
ENDMDL
MODEL 9
REMARK VINA RESULT:      -6.0      4.585      6.006
REMARK  Name = 
REMARK  2 active torsions:
REMARK  status: ('A' for Active; 'I' for Inactive)
REMARK    1  A    between atoms: N_2  and  C_3
REMARK    2  A    between atoms: C_6  and  C_7
REMARK                            x       y       z     vdW  Elec       q    Type
REMARK                         _______ _______ _______ _____ _____    ______ ____
ROOT
ATOM      1  C   UNL     1      -9.476  16.866  66.200  0.00  0.00    +0.111 A 
ATOM      2  S   UNL     1      -9.672  17.578  67.753  0.00  0.00    -0.066 S 
ATOM      3  C   UNL     1      -8.467  18.796  67.626  0.00  0.00    +0.052 A 
ATOM      4  C   UNL     1      -8.151  18.661  66.279  0.00  0.00    +0.088 A 
ATOM      5  C   UNL     1      -7.341  19.661  65.749  0.00  0.00    +0.023 A 
ATOM      6  C   UNL     1      -6.541  20.409  66.603  0.00  0.00    +0.044 A 
ATOM      7  C   UNL     1      -6.772  20.459  67.972  0.00  0.00    +0.196 A 
ATOM      8  O   UNL     1      -5.727  20.745  68.857  0.00  0.00    -0.287 OA
ATOM      9  C   UNL     1      -7.922  19.809  68.404  0.00  0.00    +0.050 A 
ATOM     10  N   UNL     1      -8.272  17.397  65.870  0.00  0.00    -0.238 NA
ENDROOT
BRANCH   1  15
ATOM     11  C   UNL     1     -11.287  13.170  66.413  0.00  0.00    +0.093 A 
ATOM     12  C   UNL     1     -11.857  14.156  65.617  0.00  0.00    +0.155 A 
ATOM     13  F   UNL     1     -13.186  14.029  65.376  0.00  0.00    -0.203 F 
ATOM     14  C   UNL     1     -11.126  15.261  65.232  0.00  0.00    +0.033 A 
ATOM     15  C   UNL     1      -9.876  15.513  65.788  0.00  0.00    +0.026 A 
ATOM     16  C   UNL     1      -9.326  14.456  66.499  0.00  0.00    +0.003 A 
ATOM     17  C   UNL     1      -9.899  13.190  66.473  0.00  0.00    +0.018 A 
BRANCH  11  19
ATOM     18  C   UNL     1     -11.508  11.225  67.874  0.00  0.00    +0.136 C 
ATOM     19  N   UNL     1     -11.973  11.947  66.698  0.00  0.00    -0.233 NA
ENDBRANCH  11  19
ENDBRANCH   1  15
TORSDOF 2
ENDMDL
