MODEL 1
REMARK VINA RESULT:      -4.9      0.000      0.000
REMARK  Name = 
REMARK  5 active torsions:
REMARK  status: ('A' for Active; 'I' for Inactive)
REMARK    1  A    between atoms: C_2  and  C_3
REMARK    2  A    between atoms: C_3  and  N_4
REMARK    3  A    between atoms: N_4  and  C_6
REMARK    4  A    between atoms: C_6  and  C_8
REMARK    5  A    between atoms: C_8  and  C_9
REMARK                            x       y       z     vdW  Elec       q    Type
REMARK                         _______ _______ _______ _____ _____    ______ ____
ROOT
ATOM      1  C   UNL     1     -13.215  14.158  71.020  0.00  0.00    +0.063 C 
ATOM      2  C   UNL     1     -14.555  14.995  71.461  0.00  0.00    +0.018 C 
ENDROOT
BRANCH   1   3
ATOM      3  N   UNL     1     -12.324  14.989  72.009  0.00  0.00    -0.261 NA
ATOM      4  C   UNL     1     -11.679  16.018  71.262  0.00  0.00    +0.090 C 
BRANCH   3   5
ATOM      5  C   UNL     1     -13.324  15.457  72.930  0.00  0.00    +0.151 C 
BRANCH   5   7
ATOM      6  C   UNL     1     -12.363  16.149  75.171  0.00  0.00    -0.013 C 
ATOM      7  C   UNL     1     -12.710  15.943  74.180  0.00  0.00    -0.060 C 
ENDBRANCH   5   7
ENDBRANCH   3   5
ENDBRANCH   1   3
BRANCH   1   8
ATOM      8  C   UNL     1     -13.491  12.985  72.133  0.00  0.00    +0.042 C 
BRANCH   8   9
ATOM      9  C   UNL     1     -12.733  11.870  71.481  0.00  0.00    -0.021 A 
ATOM     10  C   UNL     1     -13.136  10.593  71.830  0.00  0.00    -0.004 A 
ATOM     11  C   UNL     1     -12.464   9.510  71.332  0.00  0.00    -0.000 A 
ATOM     12  C   UNL     1     -11.464   9.741  70.409  0.00  0.00    -0.000 A 
ATOM     13  C   UNL     1     -11.391  10.968  69.770  0.00  0.00    -0.000 A 
ATOM     14  C   UNL     1     -12.182  12.020  70.213  0.00  0.00    -0.004 A 
ENDBRANCH   8   9
ENDBRANCH   1   8
TORSDOF 5
ENDMDL
MODEL 2
REMARK VINA RESULT:      -4.9      1.016      2.634
REMARK  Name = 
REMARK  5 active torsions:
REMARK  status: ('A' for Active; 'I' for Inactive)
REMARK    1  A    between atoms: C_2  and  C_3
REMARK    2  A    between atoms: C_3  and  N_4
REMARK    3  A    between atoms: N_4  and  C_6
REMARK    4  A    between atoms: C_6  and  C_8
REMARK    5  A    between atoms: C_8  and  C_9
REMARK                            x       y       z     vdW  Elec       q    Type
REMARK                         _______ _______ _______ _____ _____    ______ ____
ROOT
ATOM      1  C   UNL     1     -13.552  14.801  70.992  0.00  0.00    +0.063 C 
ATOM      2  C   UNL     1     -15.105  15.066  71.451  0.00  0.00    +0.018 C 
ENDROOT
BRANCH   1   3
ATOM      3  N   UNL     1     -13.050  16.011  71.856  0.00  0.00    -0.261 NA
ATOM      4  C   UNL     1     -13.427  15.770  73.210  0.00  0.00    +0.090 C 
BRANCH   3   5
ATOM      5  C   UNL     1     -11.637  15.940  71.607  0.00  0.00    +0.151 C 
BRANCH   5   7
ATOM      6  C   UNL     1     -10.927  16.454  69.229  0.00  0.00    -0.013 C 
ATOM      7  C   UNL     1     -11.331  16.219  70.192  0.00  0.00    -0.060 C 
ENDBRANCH   5   7
ENDBRANCH   3   5
ENDBRANCH   1   3
BRANCH   1   8
ATOM      8  C   UNL     1     -13.298  13.728  72.206  0.00  0.00    +0.042 C 
BRANCH   8   9
ATOM      9  C   UNL     1     -12.999  12.515  71.380  0.00  0.00    -0.021 A 
ATOM     10  C   UNL     1     -12.053  12.692  70.386  0.00  0.00    -0.004 A 
ATOM     11  C   UNL     1     -11.756  11.657  69.540  0.00  0.00    -0.000 A 
ATOM     12  C   UNL     1     -12.349  10.436  69.785  0.00  0.00    -0.000 A 
ATOM     13  C   UNL     1     -12.930  10.190  71.019  0.00  0.00    -0.000 A 
ATOM     14  C   UNL     1     -13.102  11.237  71.916  0.00  0.00    -0.004 A 
ENDBRANCH   8   9
ENDBRANCH   1   8
TORSDOF 5
ENDMDL
MODEL 3
REMARK VINA RESULT:      -4.8      3.175      5.805
REMARK  Name = 
REMARK  5 active torsions:
REMARK  status: ('A' for Active; 'I' for Inactive)
REMARK    1  A    between atoms: C_2  and  C_3
REMARK    2  A    between atoms: C_3  and  N_4
REMARK    3  A    between atoms: N_4  and  C_6
REMARK    4  A    between atoms: C_6  and  C_8
REMARK    5  A    between atoms: C_8  and  C_9
REMARK                            x       y       z     vdW  Elec       q    Type
REMARK                         _______ _______ _______ _____ _____    ______ ____
ROOT
ATOM      1  C   UNL     1     -11.689  15.872  68.770  0.00  0.00    +0.063 C 
ATOM      2  C   UNL     1     -10.540  17.037  68.648  0.00  0.00    +0.018 C 
ENDROOT
BRANCH   1   3
ATOM      3  N   UNL     1     -10.939  14.970  67.728  0.00  0.00    -0.261 NA
ATOM      4  C   UNL     1      -9.677  14.611  68.284  0.00  0.00    +0.090 C 
BRANCH   3   5
ATOM      5  C   UNL     1     -11.870  13.882  67.606  0.00  0.00    +0.151 C 
BRANCH   5   7
ATOM      6  C   UNL     1     -12.499  13.262  65.231  0.00  0.00    -0.013 C 
ATOM      7  C   UNL     1     -12.137  13.565  66.191  0.00  0.00    -0.060 C 
ENDBRANCH   5   7
ENDBRANCH   3   5
ENDBRANCH   1   3
BRANCH   1   8
ATOM      8  C   UNL     1     -10.937  15.159  70.043  0.00  0.00    +0.042 C 
BRANCH   8   9
ATOM      9  C   UNL     1     -11.977  15.410  71.091  0.00  0.00    -0.021 A 
ATOM     10  C   UNL     1     -13.243  14.936  70.798  0.00  0.00    -0.004 A 
ATOM     11  C   UNL     1     -14.273  15.170  71.668  0.00  0.00    -0.000 A 
ATOM     12  C   UNL     1     -13.976  15.788  72.865  0.00  0.00    -0.000 A 
ATOM     13  C   UNL     1     -12.662  15.846  73.300  0.00  0.00    -0.000 A 
ATOM     14  C   UNL     1     -11.638  15.477  72.438  0.00  0.00    -0.004 A 
ENDBRANCH   8   9
ENDBRANCH   1   8
TORSDOF 5
ENDMDL
MODEL 4
REMARK VINA RESULT:      -4.8      3.169      5.508
REMARK  Name = 
REMARK  5 active torsions:
REMARK  status: ('A' for Active; 'I' for Inactive)
REMARK    1  A    between atoms: C_2  and  C_3
REMARK    2  A    between atoms: C_3  and  N_4
REMARK    3  A    between atoms: N_4  and  C_6
REMARK    4  A    between atoms: C_6  and  C_8
REMARK    5  A    between atoms: C_8  and  C_9
REMARK                            x       y       z     vdW  Elec       q    Type
REMARK                         _______ _______ _______ _____ _____    ______ ____
ROOT
ATOM      1  C   UNL     1     -10.165  15.787  69.459  0.00  0.00    +0.063 C 
ATOM      2  C   UNL     1      -9.839  14.367  68.705  0.00  0.00    +0.018 C 
ENDROOT
BRANCH   1   3
ATOM      3  N   UNL     1      -9.878  16.595  68.144  0.00  0.00    -0.261 NA
ATOM      4  C   UNL     1     -10.715  16.073  67.116  0.00  0.00    +0.090 C 
BRANCH   3   5
ATOM      5  C   UNL     1     -10.218  17.924  68.576  0.00  0.00    +0.151 C 
BRANCH   5   7
ATOM      6  C   UNL     1     -10.549  19.616  66.718  0.00  0.00    -0.013 C 
ATOM      7  C   UNL     1     -10.422  18.821  67.423  0.00  0.00    -0.060 C 
ENDBRANCH   5   7
ENDBRANCH   3   5
ENDBRANCH   1   3
BRANCH   1   8
ATOM      8  C   UNL     1     -11.769  15.678  69.132  0.00  0.00    +0.042 C 
BRANCH   8   9
ATOM      9  C   UNL     1     -12.271  15.452  70.525  0.00  0.00    -0.021 A 
ATOM     10  C   UNL     1     -12.785  14.193  70.776  0.00  0.00    -0.004 A 
ATOM     11  C   UNL     1     -13.322  13.910  72.002  0.00  0.00    -0.000 A 
ATOM     12  C   UNL     1     -13.232  14.878  72.982  0.00  0.00    -0.000 A 
ATOM     13  C   UNL     1     -12.341  15.928  72.830  0.00  0.00    -0.000 A 
ATOM     14  C   UNL     1     -11.707  16.116  71.609  0.00  0.00    -0.004 A 
ENDBRANCH   8   9
ENDBRANCH   1   8
TORSDOF 5
ENDMDL
MODEL 5
REMARK VINA RESULT:      -4.8      3.143      5.803
REMARK  Name = 
REMARK  5 active torsions:
REMARK  status: ('A' for Active; 'I' for Inactive)
REMARK    1  A    between atoms: C_2  and  C_3
REMARK    2  A    between atoms: C_3  and  N_4
REMARK    3  A    between atoms: N_4  and  C_6
REMARK    4  A    between atoms: C_6  and  C_8
REMARK    5  A    between atoms: C_8  and  C_9
REMARK                            x       y       z     vdW  Elec       q    Type
REMARK                         _______ _______ _______ _____ _____    ______ ____
ROOT
ATOM      1  C   UNL     1     -10.947  14.938  68.720  0.00  0.00    +0.063 C 
ATOM      2  C   UNL     1      -9.794  13.835  68.339  0.00  0.00    +0.018 C 
ENDROOT
BRANCH   1   3
ATOM      3  N   UNL     1     -11.565  14.846  67.281  0.00  0.00    -0.261 NA
ATOM      4  C   UNL     1     -10.692  15.527  66.383  0.00  0.00    +0.090 C 
BRANCH   3   5
ATOM      5  C   UNL     1     -11.609  13.420  67.107  0.00  0.00    +0.151 C 
BRANCH   5   7
ATOM      6  C   UNL     1     -12.494  12.663  64.856  0.00  0.00    -0.013 C 
ATOM      7  C   UNL     1     -12.202  13.061  65.806  0.00  0.00    -0.060 C 
ENDBRANCH   5   7
ENDBRANCH   3   5
ENDBRANCH   1   3
BRANCH   1   8
ATOM      8  C   UNL     1     -11.958  13.788  69.311  0.00  0.00    +0.042 C 
BRANCH   8   9
ATOM      9  C   UNL     1     -12.315  14.444  70.609  0.00  0.00    -0.021 A 
ATOM     10  C   UNL     1     -12.985  13.642  71.516  0.00  0.00    -0.004 A 
ATOM     11  C   UNL     1     -13.406  14.169  72.706  0.00  0.00    -0.000 A 
ATOM     12  C   UNL     1     -13.048  15.470  72.997  0.00  0.00    -0.000 A 
ATOM     13  C   UNL     1     -12.030  16.077  72.281  0.00  0.00    -0.000 A 
ATOM     14  C   UNL     1     -11.527  15.456  71.144  0.00  0.00    -0.004 A 
ENDBRANCH   8   9
ENDBRANCH   1   8
TORSDOF 5
ENDMDL
MODEL 6
REMARK VINA RESULT:      -4.7      5.488      8.560
REMARK  Name = 
REMARK  5 active torsions:
REMARK  status: ('A' for Active; 'I' for Inactive)
REMARK    1  A    between atoms: C_2  and  C_3
REMARK    2  A    between atoms: C_3  and  N_4
REMARK    3  A    between atoms: N_4  and  C_6
REMARK    4  A    between atoms: C_6  and  C_8
REMARK    5  A    between atoms: C_8  and  C_9
REMARK                            x       y       z     vdW  Elec       q    Type
REMARK                         _______ _______ _______ _____ _____    ______ ____
ROOT
ATOM      1  C   UNL     1     -10.299  15.660  66.009  0.00  0.00    +0.063 C 
ATOM      2  C   UNL     1      -8.981  14.852  66.561  0.00  0.00    +0.018 C 
ENDROOT
BRANCH   1   3
ATOM      3  N   UNL     1     -11.157  14.346  66.022  0.00  0.00    -0.261 NA
ATOM      4  C   UNL     1     -11.903  14.321  67.236  0.00  0.00    +0.090 C 
BRANCH   3   5
ATOM      5  C   UNL     1     -11.948  14.539  64.838  0.00  0.00    +0.151 C 
BRANCH   5   7
ATOM      6  C   UNL     1     -12.185  12.388  63.518  0.00  0.00    -0.013 C 
ATOM      7  C   UNL     1     -11.987  13.314  64.019  0.00  0.00    -0.060 C 
ENDBRANCH   5   7
ENDBRANCH   3   5
ENDBRANCH   1   3
BRANCH   1   8
ATOM      8  C   UNL     1     -10.771  16.075  67.524  0.00  0.00    +0.042 C 
BRANCH   8   9
ATOM      9  C   UNL     1     -10.530  17.551  67.441  0.00  0.00    -0.021 A 
ATOM     10  C   UNL     1      -9.871  18.108  68.522  0.00  0.00    -0.004 A 
ATOM     11  C   UNL     1      -9.658  19.459  68.565  0.00  0.00    -0.000 A 
ATOM     12  C   UNL     1     -10.027  20.204  67.464  0.00  0.00    -0.000 A 
ATOM     13  C   UNL     1     -10.269  19.569  66.257  0.00  0.00    -0.000 A 
ATOM     14  C   UNL     1     -10.351  18.183  66.216  0.00  0.00    -0.004 A 
ENDBRANCH   8   9
ENDBRANCH   1   8
TORSDOF 5
ENDMDL
MODEL 7
REMARK VINA RESULT:      -4.7      3.259      5.815
REMARK  Name = 
REMARK  5 active torsions:
REMARK  status: ('A' for Active; 'I' for Inactive)
REMARK    1  A    between atoms: C_2  and  C_3
REMARK    2  A    between atoms: C_3  and  N_4
REMARK    3  A    between atoms: N_4  and  C_6
REMARK    4  A    between atoms: C_6  and  C_8
REMARK    5  A    between atoms: C_8  and  C_9
REMARK                            x       y       z     vdW  Elec       q    Type
REMARK                         _______ _______ _______ _____ _____    ______ ____
ROOT
ATOM      1  C   UNL     1     -10.651  16.369  69.591  0.00  0.00    +0.063 C 
ATOM      2  C   UNL     1      -9.391  15.415  69.149  0.00  0.00    +0.018 C 
ENDROOT
BRANCH   1   3
ATOM      3  N   UNL     1     -10.860  16.845  68.110  0.00  0.00    -0.261 NA
ATOM      4  C   UNL     1     -10.264  18.133  67.974  0.00  0.00    +0.090 C 
BRANCH   3   5
ATOM      5  C   UNL     1     -10.182  15.794  67.401  0.00  0.00    +0.151 C 
BRANCH   5   7
ATOM      6  C   UNL     1     -10.864  15.610  64.967  0.00  0.00    -0.013 C 
ATOM      7  C   UNL     1     -10.547  15.796  65.973  0.00  0.00    -0.060 C 
ENDBRANCH   5   7
ENDBRANCH   3   5
ENDBRANCH   1   3
BRANCH   1   8
ATOM      8  C   UNL     1     -11.731  15.145  69.432  0.00  0.00    +0.042 C 
BRANCH   8   9
ATOM      9  C   UNL     1     -12.137  15.011  70.867  0.00  0.00    -0.021 A 
ATOM     10  C   UNL     1     -11.928  16.131  71.651  0.00  0.00    -0.004 A 
ATOM     11  C   UNL     1     -12.212  16.085  72.989  0.00  0.00    -0.000 A 
ATOM     12  C   UNL     1     -12.800  14.938  73.483  0.00  0.00    -0.000 A 
ATOM     13  C   UNL     1     -13.384  14.036  72.610  0.00  0.00    -0.000 A 
ATOM     14  C   UNL     1     -13.187  14.181  71.242  0.00  0.00    -0.004 A 
ENDBRANCH   8   9
ENDBRANCH   1   8
TORSDOF 5
ENDMDL
MODEL 8
REMARK VINA RESULT:      -4.4      4.134      5.342
REMARK  Name = 
REMARK  5 active torsions:
REMARK  status: ('A' for Active; 'I' for Inactive)
REMARK    1  A    between atoms: C_2  and  C_3
REMARK    2  A    between atoms: C_3  and  N_4
REMARK    3  A    between atoms: N_4  and  C_6
REMARK    4  A    between atoms: C_6  and  C_8
REMARK    5  A    between atoms: C_8  and  C_9
REMARK                            x       y       z     vdW  Elec       q    Type
REMARK                         _______ _______ _______ _____ _____    ______ ____
ROOT
ATOM      1  C   UNL     1     -10.457  13.859  67.550  0.00  0.00    +0.063 C 
ATOM      2  C   UNL     1     -10.568  15.270  66.721  0.00  0.00    +0.018 C 
ENDROOT
BRANCH   1   3
ATOM      3  N   UNL     1     -10.946  14.553  68.870  0.00  0.00    -0.261 NA
ATOM      4  C   UNL     1     -11.511  15.814  68.521  0.00  0.00    +0.090 C 
BRANCH   3   5
ATOM      5  C   UNL     1     -11.896  13.581  69.339  0.00  0.00    +0.151 C 
BRANCH   5   7
ATOM      6  C   UNL     1     -12.608  14.232  71.682  0.00  0.00    -0.013 C 
ATOM      7  C   UNL     1     -12.418  13.946  70.669  0.00  0.00    -0.060 C 
ENDBRANCH   5   7
ENDBRANCH   3   5
ENDBRANCH   1   3
BRANCH   1   8
ATOM      8  C   UNL     1     -11.978  13.407  67.133  0.00  0.00    +0.042 C 
BRANCH   8   9
ATOM      9  C   UNL     1     -11.666  12.724  65.838  0.00  0.00    -0.021 A 
ATOM     10  C   UNL     1     -10.800  11.648  65.927  0.00  0.00    -0.004 A 
ATOM     11  C   UNL     1     -10.408  10.996  64.789  0.00  0.00    -0.000 A 
ATOM     12  C   UNL     1     -10.982  11.384  63.595  0.00  0.00    -0.000 A 
ATOM     13  C   UNL     1     -12.141  12.144  63.606  0.00  0.00    -0.000 A 
ATOM     14  C   UNL     1     -12.592  12.688  64.802  0.00  0.00    -0.004 A 
ENDBRANCH   8   9
ENDBRANCH   1   8
TORSDOF 5
ENDMDL
MODEL 9
REMARK VINA RESULT:      -4.4      2.813      4.758
REMARK  Name = 
REMARK  5 active torsions:
REMARK  status: ('A' for Active; 'I' for Inactive)
REMARK    1  A    between atoms: C_2  and  C_3
REMARK    2  A    between atoms: C_3  and  N_4
REMARK    3  A    between atoms: N_4  and  C_6
REMARK    4  A    between atoms: C_6  and  C_8
REMARK    5  A    between atoms: C_8  and  C_9
REMARK                            x       y       z     vdW  Elec       q    Type
REMARK                         _______ _______ _______ _____ _____    ______ ____
ROOT
ATOM      1  C   UNL     1     -12.609  15.235  70.079  0.00  0.00    +0.063 C 
ATOM      2  C   UNL     1     -12.171  13.790  70.722  0.00  0.00    +0.018 C 
ENDROOT
BRANCH   1   3
ATOM      3  N   UNL     1     -13.123  15.742  71.472  0.00  0.00    -0.261 NA
ATOM      4  C   UNL     1     -14.457  15.271  71.647  0.00  0.00    +0.090 C 
BRANCH   3   5
ATOM      5  C   UNL     1     -12.156  15.133  72.344  0.00  0.00    +0.151 C 
BRANCH   5   7
ATOM      6  C   UNL     1     -12.496  15.728  74.784  0.00  0.00    -0.013 C 
ATOM      7  C   UNL     1     -12.334  15.588  73.735  0.00  0.00    -0.060 C 
ENDBRANCH   5   7
ENDBRANCH   3   5
ENDBRANCH   1   3
BRANCH   1   8
ATOM      8  C   UNL     1     -11.116  15.875  70.311  0.00  0.00    +0.042 C 
BRANCH   8   9
ATOM      9  C   UNL     1     -10.751  16.124  68.880  0.00  0.00    -0.021 A 
ATOM     10  C   UNL     1     -11.264  15.219  67.969  0.00  0.00    -0.004 A 
ATOM     11  C   UNL     1     -10.936  15.329  66.644  0.00  0.00    -0.000 A 
ATOM     12  C   UNL     1     -10.179  16.416  66.257  0.00  0.00    -0.000 A 
ATOM     13  C   UNL     1     -10.062  17.506  67.103  0.00  0.00    -0.000 A 
ATOM     14  C   UNL     1     -10.523  17.413  68.410  0.00  0.00    -0.004 A 
ENDBRANCH   8   9
ENDBRANCH   1   8
TORSDOF 5
ENDMDL
