MODEL 1
REMARK VINA RESULT:      -7.4      0.000      0.000
REMARK  Name = 
REMARK  4 active torsions:
REMARK  status: ('A' for Active; 'I' for Inactive)
REMARK    1  A    between atoms: C_3  and  C_5
REMARK    2  A    between atoms: C_5  and  O_7
REMARK    3  A    between atoms: O_7  and  C_8
REMARK    4  A    between atoms: C_17  and  C_18
REMARK                            x       y       z     vdW  Elec       q    Type
REMARK                         _______ _______ _______ _____ _____    ______ ____
ROOT
ATOM      1  C   UNL     1     -12.037  12.519  69.173  0.00  0.00    +0.218 C 
ATOM      2  C   UNL     1     -10.652  13.006  68.405  0.00  0.00    +0.207 C 
ATOM      3  C   UNL     1     -10.830  14.430  68.566  0.00  0.00    +0.102 C 
ATOM      4  C   UNL     1      -9.634  15.207  69.318  0.00  0.00    +0.013 C 
ATOM      5  C   UNL     1     -10.574  16.380  69.978  0.00  0.00    +0.001 C 
ATOM      6  C   UNL     1      -9.117  16.207  68.145  0.00  0.00    +0.001 C 
ATOM      7  C   UNL     1     -10.347  17.180  67.679  0.00  0.00    +0.001 C 
ATOM      8  C   UNL     1      -9.470  17.840  66.393  0.00  0.00    +0.001 C 
ATOM      9  C   UNL     1     -10.320  19.062  66.032  0.00  0.00    +0.000 C 
ATOM     10  C   UNL     1      -8.153  17.673  66.172  0.00  0.00    +0.000 C 
ATOM     11  C   UNL     1     -10.578  16.616  66.055  0.00  0.00    +0.011 C 
ATOM     12  C   UNL     1      -9.697  15.206  66.396  0.00  0.00    +0.079 C 
ATOM     13  C   UNL     1     -10.294  14.186  65.315  0.00  0.00    -0.023 C 
ATOM     14  C   UNL     1     -10.150  12.967  65.933  0.00  0.00    +0.017 C 
ATOM     15  C   UNL     1     -10.984  14.953  67.330  0.00  0.00    +0.160 C 
ATOM     16  O   UNL     1     -12.053  14.965  66.819  0.00  0.00    -0.295 OA
ATOM     17  C   UNL     1     -12.110  14.708  69.286  0.00  0.00    -0.022 C 
ATOM     18  O   UNL     1      -9.637  12.299  68.701  0.00  0.00    -0.218 OA
ATOM     19  C   UNL     1     -11.356  12.570  66.963  0.00  0.00    +0.205 C 
ATOM     20  O   UNL     1     -10.887  11.126  67.089  0.00  0.00    -0.216 OA
ATOM     21  C   UNL     1     -12.019  13.774  70.202  0.00  0.00    -0.006 C 
ATOM     22  C   UNL     1     -12.988  13.828  71.337  0.00  0.00    +0.030 C 
ENDROOT
BRANCH  14  23
ATOM     23  C   UNL     1      -9.947  11.911  64.884  0.00  0.00    +0.207 C 
ATOM     24  O   UNL     1     -10.513  12.314  63.684  0.00  0.00    -0.215 OA
ENDBRANCH  14  23
BRANCH   1  25
ATOM     25  O   UNL     1     -11.374  11.613  70.235  0.00  0.00    -0.442 OA
BRANCH  25  26
ATOM     26  C   UNL     1     -12.294  10.571  70.420  0.00  0.00    +0.337 C 
ATOM     27  O   UNL     1     -13.128  10.275  69.511  0.00  0.00    -0.245 OA
BRANCH  26  30
ATOM     28  C   UNL     1     -10.244   9.059  70.981  0.00  0.00    +0.031 C 
ATOM     29  C   UNL     1     -11.032   9.027  71.666  0.00  0.00    -0.024 C 
ATOM     30  C   UNL     1     -12.209   9.587  71.494  0.00  0.00    +0.050 C 
ATOM     31  C   UNL     1     -13.449   9.186  72.229  0.00  0.00    +0.037 C 
ENDBRANCH  26  30
ENDBRANCH  25  26
ENDBRANCH   1  25
TORSDOF 4
ENDMDL
MODEL 2
REMARK VINA RESULT:      -7.0      3.101      5.079
REMARK  Name = 
REMARK  4 active torsions:
REMARK  status: ('A' for Active; 'I' for Inactive)
REMARK    1  A    between atoms: C_3  and  C_5
REMARK    2  A    between atoms: C_5  and  O_7
REMARK    3  A    between atoms: O_7  and  C_8
REMARK    4  A    between atoms: C_17  and  C_18
REMARK                            x       y       z     vdW  Elec       q    Type
REMARK                         _______ _______ _______ _____ _____    ______ ____
ROOT
ATOM      1  C   UNL     1      -9.929  14.558  66.409  0.00  0.00    +0.218 C 
ATOM      2  C   UNL     1      -9.407  15.281  67.805  0.00  0.00    +0.207 C 
ATOM      3  C   UNL     1      -9.199  16.607  67.273  0.00  0.00    +0.102 C 
ATOM      4  C   UNL     1     -10.010  17.792  68.007  0.00  0.00    +0.013 C 
ATOM      5  C   UNL     1     -10.159  18.750  66.680  0.00  0.00    +0.001 C 
ATOM      6  C   UNL     1      -8.791  18.698  68.589  0.00  0.00    +0.001 C 
ATOM      7  C   UNL     1      -7.852  19.207  67.350  0.00  0.00    +0.001 C 
ATOM      8  C   UNL     1      -6.685  19.872  68.376  0.00  0.00    +0.001 C 
ATOM      9  C   UNL     1      -5.876  20.739  67.407  0.00  0.00    +0.000 C 
ATOM     10  C   UNL     1      -6.812  20.042  69.705  0.00  0.00    +0.000 C 
ATOM     11  C   UNL     1      -6.387  18.352  67.711  0.00  0.00    +0.011 C 
ATOM     12  C   UNL     1      -7.227  17.312  68.758  0.00  0.00    +0.079 C 
ATOM     13  C   UNL     1      -6.295  16.010  68.731  0.00  0.00    -0.023 C 
ATOM     14  C   UNL     1      -7.187  14.992  68.968  0.00  0.00    +0.017 C 
ATOM     15  C   UNL     1      -7.876  16.865  67.354  0.00  0.00    +0.160 C 
ATOM     16  O   UNL     1      -7.146  16.501  66.494  0.00  0.00    -0.295 OA
ATOM     17  C   UNL     1      -9.528  16.631  65.815  0.00  0.00    -0.022 C 
ATOM     18  O   UNL     1     -10.077  14.937  68.830  0.00  0.00    -0.218 OA
ATOM     19  C   UNL     1      -7.978  14.445  67.647  0.00  0.00    +0.205 C 
ATOM     20  O   UNL     1      -8.527  13.225  68.375  0.00  0.00    -0.216 OA
ATOM     21  C   UNL     1     -10.627  15.915  65.857  0.00  0.00    -0.006 C 
ATOM     22  C   UNL     1     -11.470  15.879  64.625  0.00  0.00    +0.030 C 
ENDROOT
BRANCH  14  23
ATOM     23  C   UNL     1      -6.475  13.880  69.687  0.00  0.00    +0.207 C 
ATOM     24  O   UNL     1      -6.062  14.308  70.940  0.00  0.00    -0.215 OA
ENDBRANCH  14  23
BRANCH   1  25
ATOM     25  O   UNL     1     -11.289  14.050  66.938  0.00  0.00    -0.442 OA
BRANCH  25  26
ATOM     26  C   UNL     1     -11.291  12.684  66.623  0.00  0.00    +0.337 C 
ATOM     27  O   UNL     1     -12.018  11.871  67.272  0.00  0.00    -0.245 OA
BRANCH  26  30
ATOM     28  C   UNL     1     -12.455  12.500  64.296  0.00  0.00    +0.031 C 
ATOM     29  C   UNL     1     -11.441  12.248  64.317  0.00  0.00    -0.024 C 
ATOM     30  C   UNL     1     -10.714  12.126  65.405  0.00  0.00    +0.050 C 
ATOM     31  C   UNL     1      -9.432  11.355  65.479  0.00  0.00    +0.037 C 
ENDBRANCH  26  30
ENDBRANCH  25  26
ENDBRANCH   1  25
TORSDOF 4
ENDMDL
MODEL 3
REMARK VINA RESULT:      -6.9      2.793      6.707
REMARK  Name = 
REMARK  4 active torsions:
REMARK  status: ('A' for Active; 'I' for Inactive)
REMARK    1  A    between atoms: C_3  and  C_5
REMARK    2  A    between atoms: C_5  and  O_7
REMARK    3  A    between atoms: O_7  and  C_8
REMARK    4  A    between atoms: C_17  and  C_18
REMARK                            x       y       z     vdW  Elec       q    Type
REMARK                         _______ _______ _______ _____ _____    ______ ____
ROOT
ATOM      1  C   UNL     1      -9.209  14.483  66.459  0.00  0.00    +0.218 C 
ATOM      2  C   UNL     1     -10.316  13.250  66.451  0.00  0.00    +0.207 C 
ATOM      3  C   UNL     1      -9.467  12.222  67.005  0.00  0.00    +0.102 C 
ATOM      4  C   UNL     1     -10.007  11.515  68.350  0.00  0.00    +0.013 C 
ATOM      5  C   UNL     1      -8.526  11.185  68.981  0.00  0.00    +0.001 C 
ATOM      6  C   UNL     1     -10.193   9.979  67.849  0.00  0.00    +0.001 C 
ATOM      7  C   UNL     1      -8.755   9.398  67.328  0.00  0.00    +0.001 C 
ATOM      8  C   UNL     1      -9.432   7.963  66.744  0.00  0.00    +0.001 C 
ATOM      9  C   UNL     1      -8.188   7.095  66.535  0.00  0.00    +0.000 C 
ATOM     10  C   UNL     1     -10.689   7.540  66.969  0.00  0.00    +0.000 C 
ATOM     11  C   UNL     1      -9.105   9.195  65.642  0.00  0.00    +0.011 C 
ATOM     12  C   UNL     1     -10.468  10.198  65.782  0.00  0.00    +0.079 C 
ATOM     13  C   UNL     1     -10.620  10.744  64.284  0.00  0.00    -0.023 C 
ATOM     14  C   UNL     1     -11.205  11.973  64.465  0.00  0.00    +0.017 C 
ATOM     15  C   UNL     1      -9.307  11.280  66.048  0.00  0.00    +0.160 C 
ATOM     16  O   UNL     1      -8.466  11.409  65.224  0.00  0.00    -0.295 OA
ATOM     17  C   UNL     1      -8.101  12.770  67.266  0.00  0.00    -0.022 C 
ATOM     18  O   UNL     1     -11.474  13.610  66.836  0.00  0.00    -0.218 OA
ATOM     19  C   UNL     1     -10.166  13.190  64.795  0.00  0.00    +0.205 C 
ATOM     20  O   UNL     1     -11.225  14.265  64.589  0.00  0.00    -0.216 OA
ATOM     21  C   UNL     1      -8.456  13.922  67.783  0.00  0.00    -0.006 C 
ATOM     22  C   UNL     1      -7.391  14.736  68.442  0.00  0.00    +0.030 C 
ENDROOT
BRANCH  14  23
ATOM     23  C   UNL     1     -12.060  12.285  63.269  0.00  0.00    +0.207 C 
ATOM     24  O   UNL     1     -13.376  11.922  63.514  0.00  0.00    -0.215 OA
ENDBRANCH  14  23
BRANCH   1  25
ATOM     25  O   UNL     1     -10.020  15.479  67.318  0.00  0.00    -0.442 OA
BRANCH  25  26
ATOM     26  C   UNL     1      -9.810  16.718  66.696  0.00  0.00    +0.337 C 
ATOM     27  O   UNL     1     -10.416  17.015  65.622  0.00  0.00    -0.245 OA
BRANCH  26  30
ATOM     28  C   UNL     1      -7.405  17.582  66.170  0.00  0.00    +0.031 C 
ATOM     29  C   UNL     1      -7.969  18.177  66.819  0.00  0.00    -0.024 C 
ATOM     30  C   UNL     1      -9.134  17.846  67.329  0.00  0.00    +0.050 C 
ATOM     31  C   UNL     1      -9.718  18.460  68.563  0.00  0.00    +0.037 C 
ENDBRANCH  26  30
ENDBRANCH  25  26
ENDBRANCH   1  25
TORSDOF 4
ENDMDL
MODEL 4
REMARK VINA RESULT:      -6.9      2.197      3.345
REMARK  Name = 
REMARK  4 active torsions:
REMARK  status: ('A' for Active; 'I' for Inactive)
REMARK    1  A    between atoms: C_3  and  C_5
REMARK    2  A    between atoms: C_5  and  O_7
REMARK    3  A    between atoms: O_7  and  C_8
REMARK    4  A    between atoms: C_17  and  C_18
REMARK                            x       y       z     vdW  Elec       q    Type
REMARK                         _______ _______ _______ _____ _____    ______ ____
ROOT
ATOM      1  C   UNL     1     -10.698   9.555  69.321  0.00  0.00    +0.218 C 
ATOM      2  C   UNL     1      -9.714  10.610  68.507  0.00  0.00    +0.207 C 
ATOM      3  C   UNL     1     -10.696  11.639  68.256  0.00  0.00    +0.102 C 
ATOM      4  C   UNL     1     -10.330  13.108  68.812  0.00  0.00    +0.013 C 
ATOM      5  C   UNL     1     -11.880  13.585  69.078  0.00  0.00    +0.001 C 
ATOM      6  C   UNL     1     -10.250  13.960  67.429  0.00  0.00    +0.001 C 
ATOM      7  C   UNL     1     -11.691  13.884  66.659  0.00  0.00    +0.001 C 
ATOM      8  C   UNL     1     -11.108  14.666  65.278  0.00  0.00    +0.001 C 
ATOM      9  C   UNL     1     -12.407  15.031  64.556  0.00  0.00    +0.000 C 
ATOM     10  C   UNL     1      -9.916  15.282  65.169  0.00  0.00    +0.000 C 
ATOM     11  C   UNL     1     -11.231  12.985  65.249  0.00  0.00    +0.011 C 
ATOM     12  C   UNL     1      -9.796  12.488  66.006  0.00  0.00    +0.079 C 
ATOM     13  C   UNL     1      -9.478  11.125  65.228  0.00  0.00    -0.023 C 
ATOM     14  C   UNL     1      -8.796  10.390  66.168  0.00  0.00    +0.017 C 
ATOM     15  C   UNL     1     -10.868  11.706  66.918  0.00  0.00    +0.160 C 
ATOM     16  O   UNL     1     -11.627  10.973  66.380  0.00  0.00    -0.295 OA
ATOM     17  C   UNL     1     -12.020  11.230  68.815  0.00  0.00    -0.022 C 
ATOM     18  O   UNL     1      -8.561  10.730  69.032  0.00  0.00    -0.218 OA
ATOM     19  C   UNL     1      -9.740   9.563  67.215  0.00  0.00    +0.205 C 
ATOM     20  O   UNL     1      -8.572   8.750  67.758  0.00  0.00    -0.216 OA
ATOM     21  C   UNL     1     -11.601  10.743  69.958  0.00  0.00    -0.006 C 
ATOM     22  C   UNL     1     -12.633  10.429  70.991  0.00  0.00    +0.030 C 
ENDROOT
BRANCH  14  23
ATOM     23  C   UNL     1      -7.825   9.484  65.464  0.00  0.00    +0.207 C 
ATOM     24  O   UNL     1      -8.451   8.836  64.410  0.00  0.00    -0.215 OA
ENDBRANCH  14  23
BRANCH   1  25
ATOM     25  O   UNL     1      -9.867   9.461  70.620  0.00  0.00    -0.442 OA
BRANCH  25  26
ATOM     26  C   UNL     1      -9.736   8.084  70.845  0.00  0.00    +0.337 C 
ATOM     27  O   UNL     1      -8.623   7.501  70.668  0.00  0.00    -0.245 OA
BRANCH  26  30
ATOM     28  C   UNL     1     -11.309   6.298  69.776  0.00  0.00    +0.031 C 
ATOM     29  C   UNL     1     -11.323   6.348  70.820  0.00  0.00    -0.024 C 
ATOM     30  C   UNL     1     -10.728   7.272  71.542  0.00  0.00    +0.050 C 
ATOM     31  C   UNL     1     -11.099   7.606  72.953  0.00  0.00    +0.037 C 
ENDBRANCH  26  30
ENDBRANCH  25  26
ENDBRANCH   1  25
TORSDOF 4
ENDMDL
MODEL 5
REMARK VINA RESULT:      -6.8      1.926      4.049
REMARK  Name = 
REMARK  4 active torsions:
REMARK  status: ('A' for Active; 'I' for Inactive)
REMARK    1  A    between atoms: C_3  and  C_5
REMARK    2  A    between atoms: C_5  and  O_7
REMARK    3  A    between atoms: O_7  and  C_8
REMARK    4  A    between atoms: C_17  and  C_18
REMARK                            x       y       z     vdW  Elec       q    Type
REMARK                         _______ _______ _______ _____ _____    ______ ____
ROOT
ATOM      1  C   UNL     1     -10.315  12.615  68.458  0.00  0.00    +0.218 C 
ATOM      2  C   UNL     1     -11.175  14.020  68.282  0.00  0.00    +0.207 C 
ATOM      3  C   UNL     1     -10.124  14.821  67.700  0.00  0.00    +0.102 C 
ATOM      4  C   UNL     1     -10.453  15.476  66.264  0.00  0.00    +0.013 C 
ATOM      5  C   UNL     1      -8.906  15.472  65.710  0.00  0.00    +0.001 C 
ATOM      6  C   UNL     1     -10.380  17.063  66.614  0.00  0.00    +0.001 C 
ATOM      7  C   UNL     1      -8.889  17.426  67.181  0.00  0.00    +0.001 C 
ATOM      8  C   UNL     1      -9.320  19.009  67.588  0.00  0.00    +0.001 C 
ATOM      9  C   UNL     1      -7.951  19.658  67.806  0.00  0.00    +0.000 C 
ATOM     10  C   UNL     1     -10.465  19.626  67.240  0.00  0.00    +0.000 C 
ATOM     11  C   UNL     1      -9.284  17.854  68.814  0.00  0.00    +0.011 C 
ATOM     12  C   UNL     1     -10.798  17.102  68.668  0.00  0.00    +0.079 C 
ATOM     13  C   UNL     1     -11.126  16.742  70.194  0.00  0.00    -0.023 C 
ATOM     14  C   UNL     1     -11.917  15.624  70.081  0.00  0.00    +0.017 C 
ATOM     15  C   UNL     1      -9.844  15.808  68.579  0.00  0.00    +0.160 C 
ATOM     16  O   UNL     1      -9.085  15.614  69.468  0.00  0.00    -0.295 OA
ATOM     17  C   UNL     1      -8.870  14.015  67.584  0.00  0.00    -0.022 C 
ATOM     18  O   UNL     1     -12.357  13.835  67.850  0.00  0.00    -0.218 OA
ATOM     19  C   UNL     1     -11.104  14.215  69.932  0.00  0.00    +0.205 C 
ATOM     20  O   UNL     1     -12.352  13.372  70.157  0.00  0.00    -0.216 OA
ATOM     21  C   UNL     1      -9.403  12.899  67.146  0.00  0.00    -0.006 C 
ATOM     22  C   UNL     1      -8.473  11.847  66.636  0.00  0.00    +0.030 C 
ENDROOT
BRANCH  14  23
ATOM     23  C   UNL     1     -12.877  15.590  71.237  0.00  0.00    +0.207 C 
ATOM     24  O   UNL     1     -12.287  16.137  72.366  0.00  0.00    -0.215 OA
ENDBRANCH  14  23
BRANCH   1  25
ATOM     25  O   UNL     1     -11.249  11.699  67.636  0.00  0.00    -0.442 OA
BRANCH  25  26
ATOM     26  C   UNL     1     -11.390  10.552  68.429  0.00  0.00    +0.337 C 
ATOM     27  O   UNL     1     -12.406  10.399  69.173  0.00  0.00    -0.245 OA
BRANCH  26  30
ATOM     28  C   UNL     1      -9.643   9.634  70.135  0.00  0.00    +0.031 C 
ATOM     29  C   UNL     1      -9.851   9.013  69.321  0.00  0.00    -0.024 C 
ATOM     30  C   UNL     1     -10.577   9.350  68.278  0.00  0.00    +0.050 C 
ATOM     31  C   UNL     1     -10.512   8.662  66.950  0.00  0.00    +0.037 C 
ENDBRANCH  26  30
ENDBRANCH  25  26
ENDBRANCH   1  25
TORSDOF 4
ENDMDL
MODEL 6
REMARK VINA RESULT:      -6.7      4.198      8.135
REMARK  Name = 
REMARK  4 active torsions:
REMARK  status: ('A' for Active; 'I' for Inactive)
REMARK    1  A    between atoms: C_3  and  C_5
REMARK    2  A    between atoms: C_5  and  O_7
REMARK    3  A    between atoms: O_7  and  C_8
REMARK    4  A    between atoms: C_17  and  C_18
REMARK                            x       y       z     vdW  Elec       q    Type
REMARK                         _______ _______ _______ _____ _____    ______ ____
ROOT
ATOM      1  C   UNL     1      -6.314  18.639  67.917  0.00  0.00    +0.218 C 
ATOM      2  C   UNL     1      -7.908  18.274  68.187  0.00  0.00    +0.207 C 
ATOM      3  C   UNL     1      -7.830  16.856  67.927  0.00  0.00    +0.102 C 
ATOM      4  C   UNL     1      -8.322  15.894  69.124  0.00  0.00    +0.013 C 
ATOM      5  C   UNL     1      -7.319  14.643  68.767  0.00  0.00    +0.001 C 
ATOM      6  C   UNL     1      -9.589  15.146  68.431  0.00  0.00    +0.001 C 
ATOM      7  C   UNL     1      -9.083  14.340  67.101  0.00  0.00    +0.001 C 
ATOM      8  C   UNL     1     -10.654  13.934  66.627  0.00  0.00    +0.001 C 
ATOM      9  C   UNL     1     -10.392  12.849  65.579  0.00  0.00    +0.000 C 
ATOM     10  C   UNL     1     -11.765  14.095  67.369  0.00  0.00    +0.000 C 
ATOM     11  C   UNL     1      -9.907  15.242  65.871  0.00  0.00    +0.011 C 
ATOM     12  C   UNL     1     -10.184  16.515  66.959  0.00  0.00    +0.079 C 
ATOM     13  C   UNL     1     -10.329  17.762  65.964  0.00  0.00    -0.023 C 
ATOM     14  C   UNL     1      -9.895  18.816  66.731  0.00  0.00    +0.017 C 
ATOM     15  C   UNL     1      -8.582  16.612  66.831  0.00  0.00    +0.160 C 
ATOM     16  O   UNL     1      -8.118  16.748  65.750  0.00  0.00    -0.295 OA
ATOM     17  C   UNL     1      -6.433  16.480  67.551  0.00  0.00    -0.022 C 
ATOM     18  O   UNL     1      -8.394  18.865  69.204  0.00  0.00    -0.218 OA
ATOM     19  C   UNL     1      -8.275  19.032  66.753  0.00  0.00    +0.205 C 
ATOM     20  O   UNL     1      -8.380  20.398  67.419  0.00  0.00    -0.216 OA
ATOM     21  C   UNL     1      -5.797  17.195  68.448  0.00  0.00    -0.006 C 
ATOM     22  C   UNL     1      -4.336  16.938  68.621  0.00  0.00    +0.030 C 
ENDROOT
BRANCH  14  23
ATOM     23  C   UNL     1     -10.613  20.062  66.296  0.00  0.00    +0.207 C 
ATOM     24  O   UNL     1     -11.092  19.912  65.003  0.00  0.00    -0.215 OA
ENDBRANCH  14  23
BRANCH   1  25
ATOM     25  O   UNL     1      -6.014  19.275  69.293  0.00  0.00    -0.442 OA
BRANCH  25  26
ATOM     26  C   UNL     1      -5.214  20.386  68.990  0.00  0.00    +0.337 C 
ATOM     27  O   UNL     1      -5.602  21.254  68.150  0.00  0.00    -0.245 OA
BRANCH  26  30
ATOM     28  C   UNL     1      -2.712  20.120  68.302  0.00  0.00    +0.031 C 
ATOM     29  C   UNL     1      -2.887  20.672  69.173  0.00  0.00    -0.024 C 
ATOM     30  C   UNL     1      -4.051  20.792  69.772  0.00  0.00    +0.050 C 
ATOM     31  C   UNL     1      -4.223  21.185  71.206  0.00  0.00    +0.037 C 
ENDBRANCH  26  30
ENDBRANCH  25  26
ENDBRANCH   1  25
TORSDOF 4
ENDMDL
MODEL 7
REMARK VINA RESULT:      -6.6      3.190      5.762
REMARK  Name = 
REMARK  4 active torsions:
REMARK  status: ('A' for Active; 'I' for Inactive)
REMARK    1  A    between atoms: C_3  and  C_5
REMARK    2  A    between atoms: C_5  and  O_7
REMARK    3  A    between atoms: O_7  and  C_8
REMARK    4  A    between atoms: C_17  and  C_18
REMARK                            x       y       z     vdW  Elec       q    Type
REMARK                         _______ _______ _______ _____ _____    ______ ____
ROOT
ATOM      1  C   UNL     1      -9.018  15.389  67.945  0.00  0.00    +0.218 C 
ATOM      2  C   UNL     1      -8.596  16.661  66.971  0.00  0.00    +0.207 C 
ATOM      3  C   UNL     1      -7.291  16.914  67.535  0.00  0.00    +0.102 C 
ATOM      4  C   UNL     1      -6.056  16.858  66.500  0.00  0.00    +0.013 C 
ATOM      5  C   UNL     1      -4.937  16.347  67.590  0.00  0.00    +0.001 C 
ATOM      6  C   UNL     1      -5.508  18.387  66.575  0.00  0.00    +0.001 C 
ATOM      7  C   UNL     1      -5.068  18.732  68.112  0.00  0.00    +0.001 C 
ATOM      8  C   UNL     1      -4.795  20.366  67.773  0.00  0.00    +0.001 C 
ATOM      9  C   UNL     1      -4.013  20.814  69.010  0.00  0.00    +0.000 C 
ATOM     10  C   UNL     1      -4.761  20.919  66.547  0.00  0.00    +0.000 C 
ATOM     11  C   UNL     1      -6.253  19.936  68.502  0.00  0.00    +0.011 C 
ATOM     12  C   UNL     1      -7.206  19.456  67.182  0.00  0.00    +0.079 C 
ATOM     13  C   UNL     1      -8.666  19.916  67.656  0.00  0.00    -0.023 C 
ATOM     14  C   UNL     1      -9.490  19.020  67.020  0.00  0.00    +0.017 C 
ATOM     15  C   UNL     1      -7.334  18.140  68.101  0.00  0.00    +0.160 C 
ATOM     16  O   UNL     1      -7.740  18.270  69.206  0.00  0.00    -0.295 OA
ATOM     17  C   UNL     1      -7.023  15.961  68.655  0.00  0.00    -0.022 C 
ATOM     18  O   UNL     1      -8.908  16.486  65.750  0.00  0.00    -0.218 OA
ATOM     19  C   UNL     1      -9.693  17.597  67.799  0.00  0.00    +0.205 C 
ATOM     20  O   UNL     1     -10.845  17.171  66.897  0.00  0.00    -0.216 OA
ATOM     21  C   UNL     1      -7.488  14.871  68.090  0.00  0.00    -0.006 C 
ATOM     22  C   UNL     1      -7.195  13.571  68.764  0.00  0.00    +0.030 C 
ENDROOT
BRANCH  14  23
ATOM     23  C   UNL     1     -10.806  19.687  66.734  0.00  0.00    +0.207 C 
ATOM     24  O   UNL     1     -10.872  20.062  65.401  0.00  0.00    -0.215 OA
ENDBRANCH  14  23
BRANCH   1  25
ATOM     25  O   UNL     1      -9.283  14.356  66.827  0.00  0.00    -0.442 OA
BRANCH  25  26
ATOM     26  C   UNL     1     -10.467  13.717  67.223  0.00  0.00    +0.337 C 
ATOM     27  O   UNL     1     -10.881  13.805  68.419  0.00  0.00    -0.245 OA
BRANCH  26  30
ATOM     28  C   UNL     1     -10.465  11.302  66.238  0.00  0.00    +0.031 C 
ATOM     29  C   UNL     1     -11.312  11.877  66.027  0.00  0.00    -0.024 C 
ATOM     30  C   UNL     1     -11.444  13.157  66.295  0.00  0.00    +0.050 C 
ATOM     31  C   UNL     1     -12.426  14.062  65.620  0.00  0.00    +0.037 C 
ENDBRANCH  26  30
ENDBRANCH  25  26
ENDBRANCH   1  25
TORSDOF 4
ENDMDL
MODEL 8
REMARK VINA RESULT:      -6.5      3.442      8.424
REMARK  Name = 
REMARK  4 active torsions:
REMARK  status: ('A' for Active; 'I' for Inactive)
REMARK    1  A    between atoms: C_3  and  C_5
REMARK    2  A    between atoms: C_5  and  O_7
REMARK    3  A    between atoms: O_7  and  C_8
REMARK    4  A    between atoms: C_17  and  C_18
REMARK                            x       y       z     vdW  Elec       q    Type
REMARK                         _______ _______ _______ _____ _____    ______ ____
ROOT
ATOM      1  C   UNL     1     -10.111  10.089  69.028  0.00  0.00    +0.218 C 
ATOM      2  C   UNL     1     -10.139   8.441  69.194  0.00  0.00    +0.207 C 
ATOM      3  C   UNL     1     -10.627   8.390  70.552  0.00  0.00    +0.102 C 
ATOM      4  C   UNL     1     -11.986   7.551  70.778  0.00  0.00    +0.013 C 
ATOM      5  C   UNL     1     -12.532   8.439  72.047  0.00  0.00    +0.001 C 
ATOM      6  C   UNL     1     -11.468   6.365  71.762  0.00  0.00    +0.001 C 
ATOM      7  C   UNL     1     -10.860   7.021  73.131  0.00  0.00    +0.001 C 
ATOM      8  C   UNL     1     -10.287   5.539  73.707  0.00  0.00    +0.001 C 
ATOM      9  C   UNL     1      -9.996   5.866  75.174  0.00  0.00    +0.000 C 
ATOM     10  C   UNL     1     -10.571   4.331  73.185  0.00  0.00    +0.000 C 
ATOM     11  C   UNL     1      -9.192   6.580  72.962  0.00  0.00    +0.011 C 
ATOM     12  C   UNL     1      -9.423   6.254  71.313  0.00  0.00    +0.079 C 
ATOM     13  C   UNL     1      -7.945   6.469  70.733  0.00  0.00    -0.023 C 
ATOM     14  C   UNL     1      -8.180   6.871  69.441  0.00  0.00    +0.017 C 
ATOM     15  C   UNL     1      -9.647   7.848  71.307  0.00  0.00    +0.160 C 
ATOM     16  O   UNL     1      -8.782   8.533  71.737  0.00  0.00    -0.295 OA
ATOM     17  C   UNL     1     -10.825   9.775  71.078  0.00  0.00    -0.022 C 
ATOM     18  O   UNL     1     -10.592   7.840  68.169  0.00  0.00    -0.218 OA
ATOM     19  C   UNL     1      -8.477   8.467  69.257  0.00  0.00    +0.205 C 
ATOM     20  O   UNL     1      -8.347   8.404  67.740  0.00  0.00    -0.216 OA
ATOM     21  C   UNL     1     -11.382  10.303  70.014  0.00  0.00    -0.006 C 
ATOM     22  C   UNL     1     -11.998  11.656  70.162  0.00  0.00    +0.030 C 
ENDROOT
BRANCH  14  23
ATOM     23  C   UNL     1      -7.038   6.417  68.576  0.00  0.00    +0.207 C 
ATOM     24  O   UNL     1      -7.339   5.199  67.984  0.00  0.00    -0.215 OA
ENDBRANCH  14  23
BRANCH   1  25
ATOM     25  O   UNL     1     -11.030  10.185  67.789  0.00  0.00    -0.442 OA
BRANCH  25  26
ATOM     26  C   UNL     1     -10.390  11.117  66.959  0.00  0.00    +0.337 C 
ATOM     27  O   UNL     1      -9.373  11.755  67.367  0.00  0.00    -0.245 OA
BRANCH  26  30
ATOM     28  C   UNL     1     -12.143  12.668  65.807  0.00  0.00    +0.031 C 
ATOM     29  C   UNL     1     -11.483  12.173  65.165  0.00  0.00    -0.024 C 
ATOM     30  C   UNL     1     -10.634  11.237  65.526  0.00  0.00    +0.050 C 
ATOM     31  C   UNL     1     -10.030  10.240  64.587  0.00  0.00    +0.037 C 
ENDBRANCH  26  30
ENDBRANCH  25  26
ENDBRANCH   1  25
TORSDOF 4
ENDMDL
MODEL 9
REMARK VINA RESULT:      -6.5      2.897      7.921
REMARK  Name = 
REMARK  4 active torsions:
REMARK  status: ('A' for Active; 'I' for Inactive)
REMARK    1  A    between atoms: C_3  and  C_5
REMARK    2  A    between atoms: C_5  and  O_7
REMARK    3  A    between atoms: O_7  and  C_8
REMARK    4  A    between atoms: C_17  and  C_18
REMARK                            x       y       z     vdW  Elec       q    Type
REMARK                         _______ _______ _______ _____ _____    ______ ____
ROOT
ATOM      1  C   UNL     1     -10.521  10.171  67.218  0.00  0.00    +0.218 C 
ATOM      2  C   UNL     1     -10.108  10.442  68.799  0.00  0.00    +0.207 C 
ATOM      3  C   UNL     1      -9.340   9.238  69.010  0.00  0.00    +0.102 C 
ATOM      4  C   UNL     1      -7.818   9.452  69.498  0.00  0.00    +0.013 C 
ATOM      5  C   UNL     1      -7.214   8.098  68.790  0.00  0.00    +0.001 C 
ATOM      6  C   UNL     1      -7.848   8.739  70.959  0.00  0.00    +0.001 C 
ATOM      7  C   UNL     1      -8.273   7.169  70.788  0.00  0.00    +0.001 C 
ATOM      8  C   UNL     1      -8.380   6.912  72.456  0.00  0.00    +0.001 C 
ATOM      9  C   UNL     1      -8.413   5.384  72.534  0.00  0.00    +0.000 C 
ATOM     10  C   UNL     1      -7.965   7.766  73.410  0.00  0.00    +0.000 C 
ATOM     11  C   UNL     1      -9.806   7.182  71.598  0.00  0.00    +0.011 C 
ATOM     12  C   UNL     1      -9.870   8.875  71.496  0.00  0.00    +0.079 C 
ATOM     13  C   UNL     1     -11.449   9.140  71.552  0.00  0.00    -0.023 C 
ATOM     14  C   UNL     1     -11.588  10.305  70.838  0.00  0.00    +0.017 C 
ATOM     15  C   UNL     1      -9.997   8.504  69.935  0.00  0.00    +0.160 C 
ATOM     16  O   UNL     1     -10.876   7.782  69.604  0.00  0.00    -0.295 OA
ATOM     17  C   UNL     1      -9.333   8.410  67.766  0.00  0.00    -0.022 C 
ATOM     18  O   UNL     1      -9.768  11.646  69.031  0.00  0.00    -0.218 OA
ATOM     19  C   UNL     1     -11.684  10.115  69.217  0.00  0.00    +0.205 C 
ATOM     20  O   UNL     1     -12.120  11.557  68.988  0.00  0.00    -0.216 OA
ATOM     21  C   UNL     1      -9.144   9.375  66.898  0.00  0.00    -0.006 C 
ATOM     22  C   UNL     1      -8.812   8.982  65.495  0.00  0.00    +0.030 C 
ENDROOT
BRANCH  14  23
ATOM     23  C   UNL     1     -12.766  11.068  71.376  0.00  0.00    +0.207 C 
ATOM     24  O   UNL     1     -13.562  10.235  72.148  0.00  0.00    -0.215 OA
ENDBRANCH  14  23
BRANCH   1  25
ATOM     25  O   UNL     1      -9.931  11.471  66.627  0.00  0.00    -0.442 OA
BRANCH  25  26
ATOM     26  C   UNL     1     -10.929  11.936  65.758  0.00  0.00    +0.337 C 
ATOM     27  O   UNL     1     -12.156  11.808  66.053  0.00  0.00    -0.245 OA
BRANCH  26  30
ATOM     28  C   UNL     1     -10.443  11.214  63.299  0.00  0.00    +0.031 C 
ATOM     29  C   UNL     1     -10.578  12.239  63.453  0.00  0.00    -0.024 C 
ATOM     30  C   UNL     1     -10.678  12.822  64.626  0.00  0.00    +0.050 C 
ATOM     31  C   UNL     1     -10.426  14.278  64.868  0.00  0.00    +0.037 C 
ENDBRANCH  26  30
ENDBRANCH  25  26
ENDBRANCH   1  25
TORSDOF 4
ENDMDL
