MODEL 1
REMARK VINA RESULT:      -7.0      0.000      0.000
REMARK  Name = 
REMARK  12 active torsions:
REMARK  status: ('A' for Active; 'I' for Inactive)
REMARK    1  A    between atoms: C_2  and  N_4
REMARK    2  A    between atoms: N_4  and  C_5
REMARK    3  A    between atoms: N_4  and  C_18
REMARK    4  A    between atoms: C_5  and  C_6
REMARK    5  A    between atoms: C_6  and  C_7
REMARK    6  A    between atoms: C_7  and  C_8
REMARK    7  A    between atoms: C_8  and  O_9
REMARK    8  A    between atoms: O_9  and  C_10
REMARK    9  A    between atoms: C_10  and  C_11
REMARK   10  A    between atoms: N_13  and  S_14
REMARK   11  A    between atoms: C_21  and  C_22
REMARK   12  A    between atoms: C_28  and  C_29
REMARK                            x       y       z     vdW  Elec       q    Type
REMARK                         _______ _______ _______ _____ _____    ______ ____
ROOT
ATOM      1  C   UNL     1     -10.657  14.259  67.605  0.00  0.00    +0.151 A 
ATOM      2  N   UNL     1      -9.427  14.801  67.782  0.00  0.00    -0.228 NA
ATOM      3  C   UNL     1      -9.274  16.112  68.087  0.00  0.00    +0.100 A 
ATOM      4  C   UNL     1     -10.377  16.895  68.405  0.00  0.00    +0.099 A 
ATOM      5  N   UNL     1     -11.503  16.203  68.707  0.00  0.00    -0.239 NA
ATOM      6  C   UNL     1     -11.693  14.954  68.217  0.00  0.00    +0.133 A 
ENDROOT
BRANCH   4   7
ATOM      7  C   UNL     1     -10.422  18.309  68.008  0.00  0.00    +0.019 A 
ATOM      8  C   UNL     1     -10.597  18.548  66.650  0.00  0.00    +0.002 A 
ATOM      9  C   UNL     1     -10.171  19.734  66.064  0.00  0.00    +0.000 A 
ATOM     10  C   UNL     1      -9.121  20.413  66.651  0.00  0.00    +0.000 A 
ATOM     11  C   UNL     1      -8.971  20.254  68.020  0.00  0.00    +0.000 A 
ATOM     12  C   UNL     1      -9.661  19.258  68.678  0.00  0.00    +0.002 A 
ENDBRANCH   4   7
BRANCH   3  13
ATOM     13  C   UNL     1      -7.976  16.759  68.059  0.00  0.00    +0.019 A 
ATOM     14  C   UNL     1      -7.123  16.697  69.153  0.00  0.00    +0.002 A 
ATOM     15  C   UNL     1      -5.752  16.636  69.020  0.00  0.00    +0.000 A 
ATOM     16  C   UNL     1      -5.213  16.937  67.797  0.00  0.00    +0.000 A 
ATOM     17  C   UNL     1      -5.988  16.887  66.670  0.00  0.00    +0.000 A 
ATOM     18  C   UNL     1      -7.354  16.958  66.833  0.00  0.00    +0.002 A 
ENDBRANCH   3  13
BRANCH   1  19
ATOM     19  N   UNL     1     -10.926  13.365  66.518  0.00  0.00    -0.294 N 
BRANCH  19  21
ATOM     20  C   UNL     1     -12.332  14.184  64.732  0.00  0.00    +0.021 C 
ATOM     21  C   UNL     1     -10.910  13.861  65.149  0.00  0.00    +0.074 C 
ATOM     22  C   UNL     1     -10.450  12.726  64.241  0.00  0.00    +0.021 C 
ENDBRANCH  19  21
BRANCH  19  23
ATOM     23  C   UNL     1     -11.567  12.098  66.803  0.00  0.00    +0.092 C 
BRANCH  23  24
ATOM     24  C   UNL     1     -10.668  11.268  67.686  0.00  0.00    +0.024 C 
BRANCH  24  25
ATOM     25  C   UNL     1     -11.423  10.259  68.507  0.00  0.00    +0.034 C 
BRANCH  25  26
ATOM     26  C   UNL     1     -11.411  10.555  69.980  0.00  0.00    +0.143 C 
BRANCH  26  27
ATOM     27  O   UNL     1     -11.938  11.790  70.306  0.00  0.00    -0.344 OA
BRANCH  27  28
ATOM     28  C   UNL     1     -12.817  11.757  71.373  0.00  0.00    +0.230 C 
BRANCH  28  29
ATOM     29  C   UNL     1     -13.345  13.119  71.700  0.00  0.00    +0.292 C 
ATOM     30  N   UNL     1     -12.367  14.168  71.713  0.00  0.00    -0.061 NA
ATOM     31  O   UNL     1     -14.189  13.156  72.645  0.00  0.00    -0.269 OA
BRANCH  30  32
ATOM     32  S   UNL     1     -12.695  15.618  72.603  0.00  0.00    +0.078 S 
ATOM     33  O   UNL     1     -14.124  16.056  72.402  0.00  0.00    -0.153 OA
ATOM     34  O   UNL     1     -11.792  16.685  72.040  0.00  0.00    -0.153 OA
ATOM     35  C   UNL     1     -12.423  15.379  74.337  0.00  0.00    +0.202 C 
ENDBRANCH  30  32
ENDBRANCH  28  29
ENDBRANCH  27  28
ENDBRANCH  26  27
ENDBRANCH  25  26
ENDBRANCH  24  25
ENDBRANCH  23  24
ENDBRANCH  19  23
ENDBRANCH   1  19
TORSDOF 12
ENDMDL
MODEL 2
REMARK VINA RESULT:      -6.9      3.970      8.166
REMARK  Name = 
REMARK  12 active torsions:
REMARK  status: ('A' for Active; 'I' for Inactive)
REMARK    1  A    between atoms: C_2  and  N_4
REMARK    2  A    between atoms: N_4  and  C_5
REMARK    3  A    between atoms: N_4  and  C_18
REMARK    4  A    between atoms: C_5  and  C_6
REMARK    5  A    between atoms: C_6  and  C_7
REMARK    6  A    between atoms: C_7  and  C_8
REMARK    7  A    between atoms: C_8  and  O_9
REMARK    8  A    between atoms: O_9  and  C_10
REMARK    9  A    between atoms: C_10  and  C_11
REMARK   10  A    between atoms: N_13  and  S_14
REMARK   11  A    between atoms: C_21  and  C_22
REMARK   12  A    between atoms: C_28  and  C_29
REMARK                            x       y       z     vdW  Elec       q    Type
REMARK                         _______ _______ _______ _____ _____    ______ ____
ROOT
ATOM      1  C   UNL     1     -10.661  15.481  68.007  0.00  0.00    +0.151 A 
ATOM      2  N   UNL     1     -10.920  14.705  66.925  0.00  0.00    -0.228 NA
ATOM      3  C   UNL     1     -11.385  13.440  67.061  0.00  0.00    +0.100 A 
ATOM      4  C   UNL     1     -11.780  12.964  68.306  0.00  0.00    +0.099 A 
ATOM      5  N   UNL     1     -11.980  13.920  69.247  0.00  0.00    -0.239 NA
ATOM      6  C   UNL     1     -11.338  15.111  69.163  0.00  0.00    +0.133 A 
ENDROOT
BRANCH   4   7
ATOM      7  C   UNL     1     -11.557  11.558  68.667  0.00  0.00    +0.019 A 
ATOM      8  C   UNL     1     -12.410  11.043  69.637  0.00  0.00    +0.002 A 
ATOM      9  C   UNL     1     -12.039   9.960  70.425  0.00  0.00    +0.000 A 
ATOM     10  C   UNL     1     -10.692   9.749  70.652  0.00  0.00    +0.000 A 
ATOM     11  C   UNL     1      -9.823  10.184  69.664  0.00  0.00    +0.000 A 
ATOM     12  C   UNL     1     -10.277  11.020  68.666  0.00  0.00    +0.002 A 
ENDBRANCH   4   7
BRANCH   3  13
ATOM     13  C   UNL     1     -11.454  12.524  65.939  0.00  0.00    +0.019 A 
ATOM     14  C   UNL     1     -12.539  12.536  65.072  0.00  0.00    +0.002 A 
ATOM     15  C   UNL     1     -12.414  12.274  63.725  0.00  0.00    +0.000 A 
ATOM     16  C   UNL     1     -11.245  11.706  63.289  0.00  0.00    +0.000 A 
ATOM     17  C   UNL     1     -10.114  11.781  64.055  0.00  0.00    +0.000 A 
ATOM     18  C   UNL     1     -10.271  12.035  65.400  0.00  0.00    +0.002 A 
ENDBRANCH   3  13
BRANCH   1  19
ATOM     19  N   UNL     1      -9.470  16.272  68.086  0.00  0.00    -0.294 N 
BRANCH  19  21
ATOM     20  C   UNL     1      -7.320  16.366  69.184  0.00  0.00    +0.021 C 
ATOM     21  C   UNL     1      -8.170  15.622  68.171  0.00  0.00    +0.074 C 
ATOM     22  C   UNL     1      -7.470  15.787  66.828  0.00  0.00    +0.021 C 
ENDBRANCH  19  21
BRANCH  19  23
ATOM     23  C   UNL     1      -9.587  17.669  68.452  0.00  0.00    +0.092 C 
BRANCH  23  24
ATOM     24  C   UNL     1     -10.012  18.470  67.247  0.00  0.00    +0.024 C 
BRANCH  24  25
ATOM     25  C   UNL     1      -9.177  19.703  67.038  0.00  0.00    +0.034 C 
BRANCH  25  26
ATOM     26  C   UNL     1      -7.822  19.418  66.454  0.00  0.00    +0.143 C 
BRANCH  26  27
ATOM     27  O   UNL     1      -6.825  19.278  67.401  0.00  0.00    -0.344 OA
BRANCH  27  28
ATOM     28  C   UNL     1      -6.765  20.322  68.306  0.00  0.00    +0.230 C 
BRANCH  28  29
ATOM     29  C   UNL     1      -5.885  19.996  69.472  0.00  0.00    +0.292 C 
ATOM     30  N   UNL     1      -5.553  21.105  70.319  0.00  0.00    -0.061 NA
ATOM     31  O   UNL     1      -4.927  19.206  69.218  0.00  0.00    -0.269 OA
BRANCH  30  32
ATOM     32  S   UNL     1      -4.141  21.013  71.318  0.00  0.00    +0.078 S 
ATOM     33  O   UNL     1      -4.107  19.708  72.073  0.00  0.00    -0.153 OA
ATOM     34  O   UNL     1      -4.246  22.134  72.320  0.00  0.00    -0.153 OA
ATOM     35  C   UNL     1      -2.663  21.138  70.350  0.00  0.00    +0.202 C 
ENDBRANCH  30  32
ENDBRANCH  28  29
ENDBRANCH  27  28
ENDBRANCH  26  27
ENDBRANCH  25  26
ENDBRANCH  24  25
ENDBRANCH  23  24
ENDBRANCH  19  23
ENDBRANCH   1  19
TORSDOF 12
ENDMDL
MODEL 3
REMARK VINA RESULT:      -6.7      3.578      8.329
REMARK  Name = 
REMARK  12 active torsions:
REMARK  status: ('A' for Active; 'I' for Inactive)
REMARK    1  A    between atoms: C_2  and  N_4
REMARK    2  A    between atoms: N_4  and  C_5
REMARK    3  A    between atoms: N_4  and  C_18
REMARK    4  A    between atoms: C_5  and  C_6
REMARK    5  A    between atoms: C_6  and  C_7
REMARK    6  A    between atoms: C_7  and  C_8
REMARK    7  A    between atoms: C_8  and  O_9
REMARK    8  A    between atoms: O_9  and  C_10
REMARK    9  A    between atoms: C_10  and  C_11
REMARK   10  A    between atoms: N_13  and  S_14
REMARK   11  A    between atoms: C_21  and  C_22
REMARK   12  A    between atoms: C_28  and  C_29
REMARK                            x       y       z     vdW  Elec       q    Type
REMARK                         _______ _______ _______ _____ _____    ______ ____
ROOT
ATOM      1  C   UNL     1     -12.599  12.571  70.929  0.00  0.00    +0.151 A 
ATOM      2  N   UNL     1     -11.860  12.204  69.852  0.00  0.00    -0.228 NA
ATOM      3  C   UNL     1     -11.433  10.928  69.694  0.00  0.00    +0.100 A 
ATOM      4  C   UNL     1     -11.891   9.922  70.536  0.00  0.00    +0.099 A 
ATOM      5  N   UNL     1     -12.995  10.237  71.257  0.00  0.00    -0.239 NA
ATOM      6  C   UNL     1     -13.277  11.529  71.551  0.00  0.00    +0.133 A 
ENDROOT
BRANCH   4   7
ATOM      7  C   UNL     1     -11.002   8.819  70.925  0.00  0.00    +0.019 A 
ATOM      8  C   UNL     1     -11.365   7.560  70.461  0.00  0.00    +0.002 A 
ATOM      9  C   UNL     1     -10.960   6.403  71.117  0.00  0.00    +0.000 A 
ATOM     10  C   UNL     1     -10.697   6.478  72.471  0.00  0.00    +0.000 A 
ATOM     11  C   UNL     1     -10.258   7.704  72.948  0.00  0.00    +0.000 A 
ATOM     12  C   UNL     1     -10.359   8.828  72.157  0.00  0.00    +0.002 A 
ENDBRANCH   4   7
BRANCH   3  13
ATOM     13  C   UNL     1     -10.463  10.566  68.679  0.00  0.00    +0.019 A 
ATOM     14  C   UNL     1     -10.864   9.976  67.486  0.00  0.00    +0.002 A 
ATOM     15  C   UNL     1     -10.228  10.222  66.289  0.00  0.00    +0.000 A 
ATOM     16  C   UNL     1      -9.001  10.831  66.329  0.00  0.00    +0.000 A 
ATOM     17  C   UNL     1      -8.614  11.534  67.438  0.00  0.00    +0.000 A 
ATOM     18  C   UNL     1      -9.261  11.260  68.622  0.00  0.00    +0.002 A 
ENDBRANCH   3  13
BRANCH   1  19
ATOM     19  N   UNL     1     -12.325  13.784  71.639  0.00  0.00    -0.294 N 
BRANCH  19  21
ATOM     20  C   UNL     1     -14.351  15.007  72.129  0.00  0.00    +0.021 C 
ATOM     21  C   UNL     1     -13.205  14.209  72.719  0.00  0.00    +0.074 C 
ATOM     22  C   UNL     1     -12.429  15.174  73.607  0.00  0.00    +0.021 C 
ENDBRANCH  19  21
BRANCH  19  23
ATOM     23  C   UNL     1     -11.421  14.748  71.045  0.00  0.00    +0.092 C 
BRANCH  23  24
ATOM     24  C   UNL     1     -12.177  15.607  70.062  0.00  0.00    +0.024 C 
BRANCH  24  25
ATOM     25  C   UNL     1     -11.274  16.349  69.116  0.00  0.00    +0.034 C 
BRANCH  25  26
ATOM     26  C   UNL     1      -9.928  15.705  68.942  0.00  0.00    +0.143 C 
BRANCH  26  27
ATOM     27  O   UNL     1      -9.269  16.091  67.790  0.00  0.00    -0.344 OA
BRANCH  27  28
ATOM     28  C   UNL     1      -9.120  15.073  66.865  0.00  0.00    +0.230 C 
BRANCH  28  29
ATOM     29  C   UNL     1     -10.273  15.013  65.914  0.00  0.00    +0.292 C 
ATOM     30  N   UNL     1     -11.033  13.798  65.948  0.00  0.00    -0.061 NA
ATOM     31  O   UNL     1     -10.039  15.471  64.755  0.00  0.00    -0.269 OA
BRANCH  30  32
ATOM     32  S   UNL     1     -11.988  13.359  64.570  0.00  0.00    +0.078 S 
ATOM     33  O   UNL     1     -12.531  14.588  63.884  0.00  0.00    -0.153 OA
ATOM     34  O   UNL     1     -13.154  12.557  65.089  0.00  0.00    -0.153 OA
ATOM     35  C   UNL     1     -11.032  12.440  63.396  0.00  0.00    +0.202 C 
ENDBRANCH  30  32
ENDBRANCH  28  29
ENDBRANCH  27  28
ENDBRANCH  26  27
ENDBRANCH  25  26
ENDBRANCH  24  25
ENDBRANCH  23  24
ENDBRANCH  19  23
ENDBRANCH   1  19
TORSDOF 12
ENDMDL
MODEL 4
REMARK VINA RESULT:      -6.6      4.150      7.891
REMARK  Name = 
REMARK  12 active torsions:
REMARK  status: ('A' for Active; 'I' for Inactive)
REMARK    1  A    between atoms: C_2  and  N_4
REMARK    2  A    between atoms: N_4  and  C_5
REMARK    3  A    between atoms: N_4  and  C_18
REMARK    4  A    between atoms: C_5  and  C_6
REMARK    5  A    between atoms: C_6  and  C_7
REMARK    6  A    between atoms: C_7  and  C_8
REMARK    7  A    between atoms: C_8  and  O_9
REMARK    8  A    between atoms: O_9  and  C_10
REMARK    9  A    between atoms: C_10  and  C_11
REMARK   10  A    between atoms: N_13  and  S_14
REMARK   11  A    between atoms: C_21  and  C_22
REMARK   12  A    between atoms: C_28  and  C_29
REMARK                            x       y       z     vdW  Elec       q    Type
REMARK                         _______ _______ _______ _____ _____    ______ ____
ROOT
ATOM      1  C   UNL     1      -7.611  14.837  68.641  0.00  0.00    +0.151 A 
ATOM      2  N   UNL     1      -8.744  14.894  69.385  0.00  0.00    -0.228 NA
ATOM      3  C   UNL     1      -9.927  14.448  68.901  0.00  0.00    +0.100 A 
ATOM      4  C   UNL     1      -9.980  13.754  67.698  0.00  0.00    +0.099 A 
ATOM      5  N   UNL     1      -8.787  13.286  67.255  0.00  0.00    -0.239 NA
ATOM      6  C   UNL     1      -7.632  13.891  67.623  0.00  0.00    +0.133 A 
ENDROOT
BRANCH   4   7
ATOM      7  C   UNL     1     -11.130  13.915  66.799  0.00  0.00    +0.019 A 
ATOM      8  C   UNL     1     -11.737  12.737  66.380  0.00  0.00    +0.002 A 
ATOM      9  C   UNL     1     -12.463  12.678  65.196  0.00  0.00    +0.000 A 
ATOM     10  C   UNL     1     -12.140  13.566  64.187  0.00  0.00    +0.000 A 
ATOM     11  C   UNL     1     -11.604  14.782  64.583  0.00  0.00    +0.000 A 
ATOM     12  C   UNL     1     -11.171  14.956  65.880  0.00  0.00    +0.002 A 
ENDBRANCH   4   7
BRANCH   3  13
ATOM     13  C   UNL     1     -11.180  14.703  69.585  0.00  0.00    +0.019 A 
ATOM     14  C   UNL     1     -11.940  13.659  70.098  0.00  0.00    +0.002 A 
ATOM     15  C   UNL     1     -12.673  13.778  71.259  0.00  0.00    +0.000 A 
ATOM     16  C   UNL     1     -12.887  15.038  71.755  0.00  0.00    +0.000 A 
ATOM     17  C   UNL     1     -12.080  16.075  71.375  0.00  0.00    +0.000 A 
ATOM     18  C   UNL     1     -11.366  15.932  70.206  0.00  0.00    +0.002 A 
ENDBRANCH   3  13
BRANCH   1  19
ATOM     19  N   UNL     1      -6.702  15.942  68.586  0.00  0.00    -0.294 N 
BRANCH  19  21
ATOM     20  C   UNL     1      -4.919  16.977  69.848  0.00  0.00    +0.021 C 
ATOM     21  C   UNL     1      -5.322  15.770  69.022  0.00  0.00    +0.074 C 
ATOM     22  C   UNL     1      -4.431  15.786  67.786  0.00  0.00    +0.021 C 
ENDBRANCH  19  21
BRANCH  19  23
ATOM     23  C   UNL     1      -7.241  17.280  68.460  0.00  0.00    +0.092 C 
BRANCH  23  24
ATOM     24  C   UNL     1      -7.829  17.457  67.082  0.00  0.00    +0.024 C 
BRANCH  24  25
ATOM     25  C   UNL     1      -8.396  18.832  66.858  0.00  0.00    +0.034 C 
BRANCH  25  26
ATOM     26  C   UNL     1      -7.348  19.879  66.607  0.00  0.00    +0.143 C 
BRANCH  26  27
ATOM     27  O   UNL     1      -7.011  20.611  67.729  0.00  0.00    -0.344 OA
BRANCH  27  28
ATOM     28  C   UNL     1      -5.671  20.526  68.067  0.00  0.00    +0.230 C 
BRANCH  28  29
ATOM     29  C   UNL     1      -5.430  20.946  69.483  0.00  0.00    +0.292 C 
ATOM     30  N   UNL     1      -4.058  20.933  69.900  0.00  0.00    -0.061 NA
ATOM     31  O   UNL     1      -6.255  20.488  70.329  0.00  0.00    -0.269 OA
BRANCH  30  32
ATOM     32  S   UNL     1      -3.689  20.829  71.590  0.00  0.00    +0.078 S 
ATOM     33  O   UNL     1      -4.274  19.574  72.187  0.00  0.00    -0.153 OA
ATOM     34  O   UNL     1      -4.344  22.015  72.250  0.00  0.00    -0.153 OA
ATOM     35  C   UNL     1      -1.938  20.814  71.863  0.00  0.00    +0.202 C 
ENDBRANCH  30  32
ENDBRANCH  28  29
ENDBRANCH  27  28
ENDBRANCH  26  27
ENDBRANCH  25  26
ENDBRANCH  24  25
ENDBRANCH  23  24
ENDBRANCH  19  23
ENDBRANCH   1  19
TORSDOF 12
ENDMDL
MODEL 5
REMARK VINA RESULT:      -6.5      3.343      6.366
REMARK  Name = 
REMARK  12 active torsions:
REMARK  status: ('A' for Active; 'I' for Inactive)
REMARK    1  A    between atoms: C_2  and  N_4
REMARK    2  A    between atoms: N_4  and  C_5
REMARK    3  A    between atoms: N_4  and  C_18
REMARK    4  A    between atoms: C_5  and  C_6
REMARK    5  A    between atoms: C_6  and  C_7
REMARK    6  A    between atoms: C_7  and  C_8
REMARK    7  A    between atoms: C_8  and  O_9
REMARK    8  A    between atoms: O_9  and  C_10
REMARK    9  A    between atoms: C_10  and  C_11
REMARK   10  A    between atoms: N_13  and  S_14
REMARK   11  A    between atoms: C_21  and  C_22
REMARK   12  A    between atoms: C_28  and  C_29
REMARK                            x       y       z     vdW  Elec       q    Type
REMARK                         _______ _______ _______ _____ _____    ______ ____
ROOT
ATOM      1  C   UNL     1     -11.979  11.588  69.426  0.00  0.00    +0.151 A 
ATOM      2  N   UNL     1     -12.408  12.540  70.291  0.00  0.00    -0.228 NA
ATOM      3  C   UNL     1     -12.140  13.852  70.083  0.00  0.00    +0.100 A 
ATOM      4  C   UNL     1     -11.576  14.275  68.886  0.00  0.00    +0.099 A 
ATOM      5  N   UNL     1     -11.636  13.372  67.875  0.00  0.00    -0.239 NA
ATOM      6  C   UNL     1     -11.714  12.047  68.142  0.00  0.00    +0.133 A 
ENDROOT
BRANCH   4   7
ATOM      7  C   UNL     1     -10.623  15.393  68.869  0.00  0.00    +0.019 A 
ATOM      8  C   UNL     1     -11.063  16.550  68.237  0.00  0.00    +0.002 A 
ATOM      9  C   UNL     1     -10.167  17.469  67.704  0.00  0.00    +0.000 A 
ATOM     10  C   UNL     1      -8.927  17.013  67.301  0.00  0.00    +0.000 A 
ATOM     11  C   UNL     1      -8.429  15.905  67.969  0.00  0.00    +0.000 A 
ATOM     12  C   UNL     1      -9.257  15.159  68.780  0.00  0.00    +0.002 A 
ENDBRANCH   4   7
BRANCH   3  13
ATOM     13  C   UNL     1     -12.391  14.856  71.099  0.00  0.00    +0.019 A 
ATOM     14  C   UNL     1     -13.670  15.355  71.310  0.00  0.00    +0.002 A 
ATOM     15  C   UNL     1     -14.127  15.713  72.561  0.00  0.00    +0.000 A 
ATOM     16  C   UNL     1     -13.205  15.851  73.565  0.00  0.00    +0.000 A 
ATOM     17  C   UNL     1     -11.973  15.266  73.456  0.00  0.00    +0.000 A 
ATOM     18  C   UNL     1     -11.538  14.928  72.193  0.00  0.00    +0.002 A 
ENDBRANCH   3  13
BRANCH   1  19
ATOM     19  N   UNL     1     -11.397  10.367  69.895  0.00  0.00    -0.294 N 
BRANCH  19  21
ATOM     20  C   UNL     1     -10.813   8.670  71.515  0.00  0.00    +0.021 C 
ATOM     21  C   UNL     1     -11.560   9.971  71.288  0.00  0.00    +0.074 C 
ATOM     22  C   UNL     1     -13.034   9.659  71.520  0.00  0.00    +0.021 C 
ENDBRANCH  19  21
BRANCH  19  23
ATOM     23  C   UNL     1     -10.360   9.741  69.101  0.00  0.00    +0.092 C 
BRANCH  23  24
ATOM     24  C   UNL     1      -9.158  10.651  69.037  0.00  0.00    +0.024 C 
BRANCH  24  25
ATOM     25  C   UNL     1      -8.332  10.445  67.798  0.00  0.00    +0.034 C 
BRANCH  25  26
ATOM     26  C   UNL     1      -9.131   9.984  66.613  0.00  0.00    +0.143 C 
BRANCH  26  27
ATOM     27  O   UNL     1      -9.449  10.996  65.726  0.00  0.00    -0.344 OA
BRANCH  27  28
ATOM     28  C   UNL     1     -10.186  10.569  64.635  0.00  0.00    +0.230 C 
BRANCH  28  29
ATOM     29  C   UNL     1     -10.908  11.702  63.976  0.00  0.00    +0.292 C 
ATOM     30  N   UNL     1     -10.826  12.961  64.659  0.00  0.00    -0.061 NA
ATOM     31  O   UNL     1     -12.052  11.414  63.512  0.00  0.00    -0.269 OA
BRANCH  30  32
ATOM     32  S   UNL     1     -12.031  14.168  64.355  0.00  0.00    +0.078 S 
ATOM     33  O   UNL     1     -13.217  13.978  65.269  0.00  0.00    -0.153 OA
ATOM     34  O   UNL     1     -12.495  13.970  62.935  0.00  0.00    -0.153 OA
ATOM     35  C   UNL     1     -11.384  15.797  64.612  0.00  0.00    +0.202 C 
ENDBRANCH  30  32
ENDBRANCH  28  29
ENDBRANCH  27  28
ENDBRANCH  26  27
ENDBRANCH  25  26
ENDBRANCH  24  25
ENDBRANCH  23  24
ENDBRANCH  19  23
ENDBRANCH   1  19
TORSDOF 12
ENDMDL
MODEL 6
REMARK VINA RESULT:      -6.5      3.575      8.626
REMARK  Name = 
REMARK  12 active torsions:
REMARK  status: ('A' for Active; 'I' for Inactive)
REMARK    1  A    between atoms: C_2  and  N_4
REMARK    2  A    between atoms: N_4  and  C_5
REMARK    3  A    between atoms: N_4  and  C_18
REMARK    4  A    between atoms: C_5  and  C_6
REMARK    5  A    between atoms: C_6  and  C_7
REMARK    6  A    between atoms: C_7  and  C_8
REMARK    7  A    between atoms: C_8  and  O_9
REMARK    8  A    between atoms: O_9  and  C_10
REMARK    9  A    between atoms: C_10  and  C_11
REMARK   10  A    between atoms: N_13  and  S_14
REMARK   11  A    between atoms: C_21  and  C_22
REMARK   12  A    between atoms: C_28  and  C_29
REMARK                            x       y       z     vdW  Elec       q    Type
REMARK                         _______ _______ _______ _____ _____    ______ ____
ROOT
ATOM      1  C   UNL     1      -9.862   9.860  68.988  0.00  0.00    +0.151 A 
ATOM      2  N   UNL     1     -10.965   9.624  69.742  0.00  0.00    -0.228 NA
ATOM      3  C   UNL     1     -10.878   8.995  70.938  0.00  0.00    +0.100 A 
ATOM      4  C   UNL     1      -9.638   8.734  71.509  0.00  0.00    +0.099 A 
ATOM      5  N   UNL     1      -8.604   9.430  70.973  0.00  0.00    -0.239 NA
ATOM      6  C   UNL     1      -8.667   9.878  69.696  0.00  0.00    +0.133 A 
ENDROOT
BRANCH   4   7
ATOM      7  C   UNL     1      -9.423   7.509  72.290  0.00  0.00    +0.019 A 
ATOM      8  C   UNL     1      -8.973   7.696  73.592  0.00  0.00    +0.002 A 
ATOM      9  C   UNL     1      -8.266   6.704  74.262  0.00  0.00    +0.000 A 
ATOM     10  C   UNL     1      -7.541   5.798  73.512  0.00  0.00    +0.000 A 
ATOM     11  C   UNL     1      -8.014   5.534  72.235  0.00  0.00    +0.000 A 
ATOM     12  C   UNL     1      -8.979   6.345  71.676  0.00  0.00    +0.002 A 
ENDBRANCH   4   7
BRANCH   3  13
ATOM     13  C   UNL     1     -12.055   8.535  71.650  0.00  0.00    +0.019 A 
ATOM     14  C   UNL     1     -12.958   9.439  72.195  0.00  0.00    +0.002 A 
ATOM     15  C   UNL     1     -14.313   9.192  72.244  0.00  0.00    +0.000 A 
ATOM     16  C   UNL     1     -14.739   7.909  72.016  0.00  0.00    +0.000 A 
ATOM     17  C   UNL     1     -13.929   7.018  71.366  0.00  0.00    +0.000 A 
ATOM     18  C   UNL     1     -12.579   7.286  71.342  0.00  0.00    +0.002 A 
ENDBRANCH   3  13
BRANCH   1  19
ATOM     19  N   UNL     1      -9.865   9.627  67.575  0.00  0.00    -0.294 N 
BRANCH  19  21
ATOM     20  C   UNL     1      -9.009   8.509  65.612  0.00  0.00    +0.021 C 
ATOM     21  C   UNL     1      -9.453   8.332  67.051  0.00  0.00    +0.074 C 
ATOM     22  C   UNL     1     -10.680   7.429  67.008  0.00  0.00    +0.021 C 
ENDBRANCH  19  21
BRANCH  19  23
ATOM     23  C   UNL     1      -9.911  10.767  66.683  0.00  0.00    +0.092 C 
BRANCH  23  24
ATOM     24  C   UNL     1     -11.263  11.430  66.784  0.00  0.00    +0.024 C 
BRANCH  24  25
ATOM     25  C   UNL     1     -11.329  12.742  66.052  0.00  0.00    +0.034 C 
BRANCH  25  26
ATOM     26  C   UNL     1     -12.109  13.797  66.783  0.00  0.00    +0.143 C 
BRANCH  26  27
ATOM     27  O   UNL     1     -11.977  13.738  68.157  0.00  0.00    -0.344 OA
BRANCH  27  28
ATOM     28  C   UNL     1     -11.308  14.820  68.701  0.00  0.00    +0.230 C 
BRANCH  28  29
ATOM     29  C   UNL     1     -11.713  15.068  70.120  0.00  0.00    +0.292 C 
ATOM     30  N   UNL     1     -12.587  14.084  70.688  0.00  0.00    -0.061 NA
ATOM     31  O   UNL     1     -12.005  16.271  70.393  0.00  0.00    -0.269 OA
BRANCH  30  32
ATOM     32  S   UNL     1     -13.568  14.510  72.052  0.00  0.00    +0.078 S 
ATOM     33  O   UNL     1     -14.303  13.303  72.577  0.00  0.00    -0.153 OA
ATOM     34  O   UNL     1     -14.587  15.504  71.558  0.00  0.00    -0.153 OA
ATOM     35  C   UNL     1     -12.583  15.179  73.363  0.00  0.00    +0.202 C 
ENDBRANCH  30  32
ENDBRANCH  28  29
ENDBRANCH  27  28
ENDBRANCH  26  27
ENDBRANCH  25  26
ENDBRANCH  24  25
ENDBRANCH  23  24
ENDBRANCH  19  23
ENDBRANCH   1  19
TORSDOF 12
ENDMDL
MODEL 7
REMARK VINA RESULT:      -6.4      2.181      4.832
REMARK  Name = 
REMARK  12 active torsions:
REMARK  status: ('A' for Active; 'I' for Inactive)
REMARK    1  A    between atoms: C_2  and  N_4
REMARK    2  A    between atoms: N_4  and  C_5
REMARK    3  A    between atoms: N_4  and  C_18
REMARK    4  A    between atoms: C_5  and  C_6
REMARK    5  A    between atoms: C_6  and  C_7
REMARK    6  A    between atoms: C_7  and  C_8
REMARK    7  A    between atoms: C_8  and  O_9
REMARK    8  A    between atoms: O_9  and  C_10
REMARK    9  A    between atoms: C_10  and  C_11
REMARK   10  A    between atoms: N_13  and  S_14
REMARK   11  A    between atoms: C_21  and  C_22
REMARK   12  A    between atoms: C_28  and  C_29
REMARK                            x       y       z     vdW  Elec       q    Type
REMARK                         _______ _______ _______ _____ _____    ______ ____
ROOT
ATOM      1  C   UNL     1     -10.408  10.411  69.153  0.00  0.00    +0.151 A 
ATOM      2  N   UNL     1      -9.949  11.686  69.209  0.00  0.00    -0.228 NA
ATOM      3  C   UNL     1     -10.253  12.586  68.243  0.00  0.00    +0.100 A 
ATOM      4  C   UNL     1     -11.190  12.279  67.263  0.00  0.00    +0.099 A 
ATOM      5  N   UNL     1     -11.979  11.211  67.540  0.00  0.00    -0.239 NA
ATOM      6  C   UNL     1     -11.545  10.236  68.374  0.00  0.00    +0.133 A 
ENDROOT
BRANCH   4   7
ATOM      7  C   UNL     1     -11.022  12.782  65.893  0.00  0.00    +0.019 A 
ATOM      8  C   UNL     1     -11.999  13.667  65.453  0.00  0.00    +0.002 A 
ATOM      9  C   UNL     1     -12.270  13.830  64.099  0.00  0.00    +0.000 A 
ATOM     10  C   UNL     1     -12.005  12.774  63.249  0.00  0.00    +0.000 A 
ATOM     11  C   UNL     1     -10.981  11.919  63.626  0.00  0.00    +0.000 A 
ATOM     12  C   UNL     1     -10.470  11.977  64.905  0.00  0.00    +0.002 A 
ENDBRANCH   4   7
BRANCH   3  13
ATOM     13  C   UNL     1      -9.597  13.877  68.165  0.00  0.00    +0.019 A 
ATOM     14  C   UNL     1      -8.504  14.074  67.329  0.00  0.00    +0.002 A 
ATOM     15  C   UNL     1      -8.275  15.268  66.681  0.00  0.00    +0.000 A 
ATOM     16  C   UNL     1      -8.976  16.369  67.099  0.00  0.00    +0.000 A 
ATOM     17  C   UNL     1     -10.131  16.220  67.817  0.00  0.00    +0.000 A 
ATOM     18  C   UNL     1     -10.329  15.019  68.462  0.00  0.00    +0.002 A 
ENDBRANCH   3  13
BRANCH   1  19
ATOM     19  N   UNL     1      -9.553   9.300  69.447  0.00  0.00    -0.294 N 
BRANCH  19  21
ATOM     20  C   UNL     1      -8.296   7.497  68.443  0.00  0.00    +0.021 C 
ATOM     21  C   UNL     1      -8.422   9.002  68.579  0.00  0.00    +0.074 C 
ATOM     22  C   UNL     1      -7.152   9.473  69.278  0.00  0.00    +0.021 C 
ENDBRANCH  19  21
BRANCH  19  23
ATOM     23  C   UNL     1     -10.025   8.283  70.364  0.00  0.00    +0.092 C 
BRANCH  23  24
ATOM     24  C   UNL     1     -10.386   8.923  71.681  0.00  0.00    +0.024 C 
BRANCH  24  25
ATOM     25  C   UNL     1     -11.729   8.486  72.198  0.00  0.00    +0.034 C 
BRANCH  25  26
ATOM     26  C   UNL     1     -12.879   9.237  71.589  0.00  0.00    +0.143 C 
BRANCH  26  27
ATOM     27  O   UNL     1     -13.057  10.504  72.112  0.00  0.00    -0.344 OA
BRANCH  27  28
ATOM     28  C   UNL     1     -12.708  11.520  71.240  0.00  0.00    +0.230 C 
BRANCH  28  29
ATOM     29  C   UNL     1     -13.288  12.835  71.658  0.00  0.00    +0.292 C 
ATOM     30  N   UNL     1     -12.470  13.980  71.385  0.00  0.00    -0.061 NA
ATOM     31  O   UNL     1     -13.857  12.835  72.791  0.00  0.00    -0.269 OA
BRANCH  30  32
ATOM     32  S   UNL     1     -12.723  15.435  72.292  0.00  0.00    +0.078 S 
ATOM     33  O   UNL     1     -14.157  15.889  72.182  0.00  0.00    -0.153 OA
ATOM     34  O   UNL     1     -11.846  16.491  71.671  0.00  0.00    -0.153 OA
ATOM     35  C   UNL     1     -12.344  15.195  74.006  0.00  0.00    +0.202 C 
ENDBRANCH  30  32
ENDBRANCH  28  29
ENDBRANCH  27  28
ENDBRANCH  26  27
ENDBRANCH  25  26
ENDBRANCH  24  25
ENDBRANCH  23  24
ENDBRANCH  19  23
ENDBRANCH   1  19
TORSDOF 12
ENDMDL
MODEL 8
REMARK VINA RESULT:      -6.4      3.174      6.641
REMARK  Name = 
REMARK  12 active torsions:
REMARK  status: ('A' for Active; 'I' for Inactive)
REMARK    1  A    between atoms: C_2  and  N_4
REMARK    2  A    between atoms: N_4  and  C_5
REMARK    3  A    between atoms: N_4  and  C_18
REMARK    4  A    between atoms: C_5  and  C_6
REMARK    5  A    between atoms: C_6  and  C_7
REMARK    6  A    between atoms: C_7  and  C_8
REMARK    7  A    between atoms: C_8  and  O_9
REMARK    8  A    between atoms: O_9  and  C_10
REMARK    9  A    between atoms: C_10  and  C_11
REMARK   10  A    between atoms: N_13  and  S_14
REMARK   11  A    between atoms: C_21  and  C_22
REMARK   12  A    between atoms: C_28  and  C_29
REMARK                            x       y       z     vdW  Elec       q    Type
REMARK                         _______ _______ _______ _____ _____    ______ ____
ROOT
ATOM      1  C   UNL     1     -11.035  11.207  66.470  0.00  0.00    +0.151 A 
ATOM      2  N   UNL     1     -11.287  10.597  67.654  0.00  0.00    -0.228 NA
ATOM      3  C   UNL     1     -11.648  11.308  68.749  0.00  0.00    +0.100 A 
ATOM      4  C   UNL     1     -11.946  12.662  68.644  0.00  0.00    +0.099 A 
ATOM      5  N   UNL     1     -12.172  13.102  67.381  0.00  0.00    -0.239 NA
ATOM      6  C   UNL     1     -11.626  12.456  66.322  0.00  0.00    +0.133 A 
ENDROOT
BRANCH   4   7
ATOM      7  C   UNL     1     -11.601  13.584  69.734  0.00  0.00    +0.019 A 
ATOM      8  C   UNL     1     -12.670  14.050  70.490  0.00  0.00    +0.002 A 
ATOM      9  C   UNL     1     -12.596  15.253  71.183  0.00  0.00    +0.000 A 
ATOM     10  C   UNL     1     -11.739  16.228  70.710  0.00  0.00    +0.000 A 
ATOM     11  C   UNL     1     -10.622  15.786  70.019  0.00  0.00    +0.000 A 
ATOM     12  C   UNL     1     -10.543  14.474  69.601  0.00  0.00    +0.002 A 
ENDBRANCH   4   7
BRANCH   3  13
ATOM     13  C   UNL     1     -11.702  10.709  70.069  0.00  0.00    +0.019 A 
ATOM     14  C   UNL     1     -12.919  10.432  70.679  0.00  0.00    +0.002 A 
ATOM     15  C   UNL     1     -13.105   9.337  71.495  0.00  0.00    +0.000 A 
ATOM     16  C   UNL     1     -11.992   8.676  71.944  0.00  0.00    +0.000 A 
ATOM     17  C   UNL     1     -10.795   8.819  71.295  0.00  0.00    +0.000 A 
ATOM     18  C   UNL     1     -10.635   9.927  70.493  0.00  0.00    +0.002 A 
ENDBRANCH   3  13
BRANCH   1  19
ATOM     19  N   UNL     1      -9.905  10.841  65.671  0.00  0.00    -0.294 N 
BRANCH  19  21
ATOM     20  C   UNL     1      -8.977   9.339  64.021  0.00  0.00    +0.021 C 
ATOM     21  C   UNL     1     -10.104  10.305  64.331  0.00  0.00    +0.074 C 
ATOM     22  C   UNL     1      -9.964  11.452  63.338  0.00  0.00    +0.021 C 
ENDBRANCH  19  21
BRANCH  19  23
ATOM     23  C   UNL     1      -8.624  10.654  66.322  0.00  0.00    +0.092 C 
BRANCH  23  24
ATOM     24  C   UNL     1      -7.994  11.999  66.586  0.00  0.00    +0.024 C 
BRANCH  24  25
ATOM     25  C   UNL     1      -7.757  12.259  68.048  0.00  0.00    +0.034 C 
BRANCH  25  26
ATOM     26  C   UNL     1      -7.065  13.565  68.320  0.00  0.00    +0.143 C 
BRANCH  26  27
ATOM     27  O   UNL     1      -7.571  14.626  67.594  0.00  0.00    -0.344 OA
BRANCH  27  28
ATOM     28  C   UNL     1      -6.698  15.696  67.489  0.00  0.00    +0.230 C 
BRANCH  28  29
ATOM     29  C   UNL     1      -7.393  16.933  67.014  0.00  0.00    +0.292 C 
ATOM     30  N   UNL     1      -8.632  17.231  67.671  0.00  0.00    -0.061 NA
ATOM     31  O   UNL     1      -7.394  17.102  65.758  0.00  0.00    -0.269 OA
BRANCH  30  32
ATOM     32  S   UNL     1      -9.788  18.247  66.875  0.00  0.00    +0.078 S 
ATOM     33  O   UNL     1     -11.058  18.343  67.683  0.00  0.00    -0.153 OA
ATOM     34  O   UNL     1     -10.114  17.586  65.561  0.00  0.00    -0.153 OA
ATOM     35  C   UNL     1      -9.149  19.883  66.644  0.00  0.00    +0.202 C 
ENDBRANCH  30  32
ENDBRANCH  28  29
ENDBRANCH  27  28
ENDBRANCH  26  27
ENDBRANCH  25  26
ENDBRANCH  24  25
ENDBRANCH  23  24
ENDBRANCH  19  23
ENDBRANCH   1  19
TORSDOF 12
ENDMDL
MODEL 9
REMARK VINA RESULT:      -6.3      3.794      7.332
REMARK  Name = 
REMARK  12 active torsions:
REMARK  status: ('A' for Active; 'I' for Inactive)
REMARK    1  A    between atoms: C_2  and  N_4
REMARK    2  A    between atoms: N_4  and  C_5
REMARK    3  A    between atoms: N_4  and  C_18
REMARK    4  A    between atoms: C_5  and  C_6
REMARK    5  A    between atoms: C_6  and  C_7
REMARK    6  A    between atoms: C_7  and  C_8
REMARK    7  A    between atoms: C_8  and  O_9
REMARK    8  A    between atoms: O_9  and  C_10
REMARK    9  A    between atoms: C_10  and  C_11
REMARK   10  A    between atoms: N_13  and  S_14
REMARK   11  A    between atoms: C_21  and  C_22
REMARK   12  A    between atoms: C_28  and  C_29
REMARK                            x       y       z     vdW  Elec       q    Type
REMARK                         _______ _______ _______ _____ _____    ______ ____
ROOT
ATOM      1  C   UNL     1     -10.598  16.429  67.481  0.00  0.00    +0.151 A 
ATOM      2  N   UNL     1     -10.916  15.506  66.539  0.00  0.00    -0.228 NA
ATOM      3  C   UNL     1     -11.195  14.224  66.876  0.00  0.00    +0.100 A 
ATOM      4  C   UNL     1     -11.342  13.862  68.210  0.00  0.00    +0.099 A 
ATOM      5  N   UNL     1     -11.518  14.897  69.068  0.00  0.00    -0.239 NA
ATOM      6  C   UNL     1     -11.047  16.130  68.761  0.00  0.00    +0.133 A 
ENDROOT
BRANCH   4   7
ATOM      7  C   UNL     1     -10.896  12.541  68.673  0.00  0.00    +0.019 A 
ATOM      8  C   UNL     1      -9.540  12.276  68.521  0.00  0.00    +0.002 A 
ATOM      9  C   UNL     1      -9.064  10.973  68.430  0.00  0.00    +0.000 A 
ATOM     10  C   UNL     1      -9.913  10.000  67.938  0.00  0.00    +0.000 A 
ATOM     11  C   UNL     1     -11.269  10.202  68.145  0.00  0.00    +0.000 A 
ATOM     12  C   UNL     1     -11.727  11.434  68.562  0.00  0.00    +0.002 A 
ENDBRANCH   4   7
BRANCH   3  13
ATOM     13  C   UNL     1     -11.315  13.178  65.878  0.00  0.00    +0.019 A 
ATOM     14  C   UNL     1     -12.535  12.904  65.273  0.00  0.00    +0.002 A 
ATOM     15  C   UNL     1     -12.634  12.502  63.958  0.00  0.00    +0.000 A 
ATOM     16  C   UNL     1     -11.492  12.086  63.328  0.00  0.00    +0.000 A 
ATOM     17  C   UNL     1     -10.264  12.441  63.817  0.00  0.00    +0.000 A 
ATOM     18  C   UNL     1     -10.193  12.829  65.137  0.00  0.00    +0.002 A 
ENDBRANCH   3  13
BRANCH   1  19
ATOM     19  N   UNL     1      -9.516  17.346  67.287  0.00  0.00    -0.294 N 
BRANCH  19  21
ATOM     20  C   UNL     1      -8.360  19.235  66.319  0.00  0.00    +0.021 C 
ATOM     21  C   UNL     1      -9.660  18.455  66.353  0.00  0.00    +0.074 C 
ATOM     22  C   UNL     1     -10.711  19.408  66.911  0.00  0.00    +0.021 C 
ENDBRANCH  19  21
BRANCH  19  23
ATOM     23  C   UNL     1      -8.190  16.958  67.722  0.00  0.00    +0.092 C 
BRANCH  23  24
ATOM     24  C   UNL     1      -7.761  15.717  66.979  0.00  0.00    +0.024 C 
BRANCH  24  25
ATOM     25  C   UNL     1      -6.880  14.817  67.800  0.00  0.00    +0.034 C 
BRANCH  25  26
ATOM     26  C   UNL     1      -6.479  15.411  69.120  0.00  0.00    +0.143 C 
BRANCH  26  27
ATOM     27  O   UNL     1      -5.206  15.951  69.126  0.00  0.00    -0.344 OA
BRANCH  27  28
ATOM     28  C   UNL     1      -4.791  16.386  70.372  0.00  0.00    +0.230 C 
BRANCH  28  29
ATOM     29  C   UNL     1      -5.346  17.736  70.702  0.00  0.00    +0.292 C 
ATOM     30  N   UNL     1      -5.223  18.719  69.665  0.00  0.00    -0.061 NA
ATOM     31  O   UNL     1      -5.091  18.151  71.872  0.00  0.00    -0.269 OA
BRANCH  30  32
ATOM     32  S   UNL     1      -5.279  20.400  70.082  0.00  0.00    +0.078 S 
ATOM     33  O   UNL     1      -6.265  20.639  71.198  0.00  0.00    -0.153 OA
ATOM     34  O   UNL     1      -5.765  21.133  68.859  0.00  0.00    -0.153 OA
ATOM     35  C   UNL     1      -3.690  20.982  70.607  0.00  0.00    +0.202 C 
ENDBRANCH  30  32
ENDBRANCH  28  29
ENDBRANCH  27  28
ENDBRANCH  26  27
ENDBRANCH  25  26
ENDBRANCH  24  25
ENDBRANCH  23  24
ENDBRANCH  19  23
ENDBRANCH   1  19
TORSDOF 12
ENDMDL
