MODEL 1
REMARK VINA RESULT:      -5.2      0.000      0.000
REMARK  Name = 
REMARK  11 active torsions:
REMARK  status: ('A' for Active; 'I' for Inactive)
REMARK    1  A    between atoms: N_2  and  C_5
REMARK    2  A    between atoms: C_5  and  C_6
REMARK    3  A    between atoms: C_6  and  O_7
REMARK    4  A    between atoms: O_7  and  C_8
REMARK    5  A    between atoms: C_8  and  C_10
REMARK    6  A    between atoms: C_10  and  C_11
REMARK    7  A    between atoms: C_11  and  C_12
REMARK    8  A    between atoms: C_12  and  O_14
REMARK    9  A    between atoms: O_14  and  C_15
REMARK   10  A    between atoms: C_15  and  C_16
REMARK   11  A    between atoms: C_16  and  N_17
REMARK                            x       y       z     vdW  Elec       q    Type
REMARK                         _______ _______ _______ _____ _____    ______ ____
ROOT
ATOM      1  C   UNL     1     -12.445  14.280  65.974  0.00  0.00    +0.121 C 
ENDROOT
BRANCH   1   2
ATOM      2  C   UNL     1     -11.896  13.942  67.310  0.00  0.00    +0.318 C 
ATOM      3  O   UNL     1     -11.833  12.709  67.594  0.00  0.00    -0.250 OA
BRANCH   2   4
ATOM      4  O   UNL     1     -11.876  14.907  68.320  0.00  0.00    -0.442 OA
BRANCH   4   5
ATOM      5  C   UNL     1     -12.068  14.408  69.643  0.00  0.00    +0.269 C 
BRANCH   5   6
ATOM      6  C   UNL     1     -12.665  15.499  70.493  0.00  0.00    +0.157 C 
BRANCH   6   8
ATOM      7  C   UNL     1     -14.151  15.566  72.314  0.00  0.00    +0.171 C 
ATOM      8  N   UNL     1     -12.955  14.936  71.808  0.00  0.00    +0.313 N 
ATOM      9  C   UNL     1     -13.130  13.505  71.759  0.00  0.00    +0.171 C 
ATOM     10  C   UNL     1     -11.873  15.293  72.721  0.00  0.00    +0.171 C 
ENDBRANCH   6   8
ENDBRANCH   5   6
ENDBRANCH   4   5
ENDBRANCH   2   4
ENDBRANCH   1   2
BRANCH   1  11
ATOM     11  C   UNL     1     -11.272  14.416  65.028  0.00  0.00    +0.121 C 
BRANCH  11  12
ATOM     12  C   UNL     1     -10.813  15.837  64.943  0.00  0.00    +0.318 C 
ATOM     13  O   UNL     1     -11.407  16.675  64.199  0.00  0.00    -0.250 OA
BRANCH  12  14
ATOM     14  O   UNL     1      -9.625  16.277  65.513  0.00  0.00    -0.442 OA
BRANCH  14  15
ATOM     15  C   UNL     1      -9.615  17.078  66.687  0.00  0.00    +0.269 C 
BRANCH  15  16
ATOM     16  C   UNL     1      -8.528  18.117  66.668  0.00  0.00    +0.157 C 
BRANCH  16  17
ATOM     17  N   UNL     1      -9.109  19.346  67.197  0.00  0.00    +0.313 N 
ATOM     18  C   UNL     1      -9.723  19.123  68.503  0.00  0.00    +0.171 C 
ATOM     19  C   UNL     1     -10.184  19.794  66.314  0.00  0.00    +0.171 C 
ATOM     20  C   UNL     1      -8.079  20.362  67.298  0.00  0.00    +0.171 C 
ENDBRANCH  16  17
ENDBRANCH  15  16
ENDBRANCH  14  15
ENDBRANCH  12  14
ENDBRANCH  11  12
ENDBRANCH   1  11
TORSDOF 11
ENDMDL
MODEL 2
REMARK VINA RESULT:      -5.1      2.802      6.183
REMARK  Name = 
REMARK  11 active torsions:
REMARK  status: ('A' for Active; 'I' for Inactive)
REMARK    1  A    between atoms: N_2  and  C_5
REMARK    2  A    between atoms: C_5  and  C_6
REMARK    3  A    between atoms: C_6  and  O_7
REMARK    4  A    between atoms: O_7  and  C_8
REMARK    5  A    between atoms: C_8  and  C_10
REMARK    6  A    between atoms: C_10  and  C_11
REMARK    7  A    between atoms: C_11  and  C_12
REMARK    8  A    between atoms: C_12  and  O_14
REMARK    9  A    between atoms: O_14  and  C_15
REMARK   10  A    between atoms: C_15  and  C_16
REMARK   11  A    between atoms: C_16  and  N_17
REMARK                            x       y       z     vdW  Elec       q    Type
REMARK                         _______ _______ _______ _____ _____    ______ ____
ROOT
ATOM      1  C   UNL     1     -10.208  15.919  66.180  0.00  0.00    +0.121 C 
ENDROOT
BRANCH   1   2
ATOM      2  C   UNL     1     -11.018  15.754  64.948  0.00  0.00    +0.318 C 
ATOM      3  O   UNL     1     -11.260  16.810  64.291  0.00  0.00    -0.250 OA
BRANCH   2   4
ATOM      4  O   UNL     1     -11.809  14.615  64.781  0.00  0.00    -0.442 OA
BRANCH   4   5
ATOM      5  C   UNL     1     -11.091  13.401  64.560  0.00  0.00    +0.269 C 
BRANCH   5   6
ATOM      6  C   UNL     1     -11.641  12.338  65.474  0.00  0.00    +0.157 C 
BRANCH   6   8
ATOM      7  C   UNL     1     -10.946  10.707  67.019  0.00  0.00    +0.171 C 
ATOM      8  N   UNL     1     -10.539  11.460  65.856  0.00  0.00    +0.313 N 
ATOM      9  C   UNL     1     -10.164  10.564  64.791  0.00  0.00    +0.171 C 
ATOM     10  C   UNL     1      -9.404  12.283  66.264  0.00  0.00    +0.171 C 
ENDBRANCH   6   8
ENDBRANCH   5   6
ENDBRANCH   4   5
ENDBRANCH   2   4
ENDBRANCH   1   2
BRANCH   1  11
ATOM     11  C   UNL     1     -11.062  15.463  67.343  0.00  0.00    +0.121 C 
BRANCH  11  12
ATOM     12  C   UNL     1     -10.992  16.440  68.474  0.00  0.00    +0.318 C 
ATOM     13  O   UNL     1     -10.923  17.688  68.259  0.00  0.00    -0.250 OA
BRANCH  12  14
ATOM     14  O   UNL     1     -10.813  16.047  69.794  0.00  0.00    -0.442 OA
BRANCH  14  15
ATOM     15  C   UNL     1     -11.906  15.953  70.697  0.00  0.00    +0.269 C 
BRANCH  15  16
ATOM     16  C   UNL     1     -12.536  14.588  70.702  0.00  0.00    +0.157 C 
BRANCH  16  17
ATOM     17  N   UNL     1     -13.351  14.503  71.908  0.00  0.00    +0.313 N 
ATOM     18  C   UNL     1     -13.619  13.114  72.271  0.00  0.00    +0.171 C 
ATOM     19  C   UNL     1     -14.653  15.117  71.659  0.00  0.00    +0.171 C 
ATOM     20  C   UNL     1     -12.672  15.179  72.998  0.00  0.00    +0.171 C 
ENDBRANCH  16  17
ENDBRANCH  15  16
ENDBRANCH  14  15
ENDBRANCH  12  14
ENDBRANCH  11  12
ENDBRANCH   1  11
TORSDOF 11
ENDMDL
MODEL 3
REMARK VINA RESULT:      -5.0      0.769      5.972
REMARK  Name = 
REMARK  11 active torsions:
REMARK  status: ('A' for Active; 'I' for Inactive)
REMARK    1  A    between atoms: N_2  and  C_5
REMARK    2  A    between atoms: C_5  and  C_6
REMARK    3  A    between atoms: C_6  and  O_7
REMARK    4  A    between atoms: O_7  and  C_8
REMARK    5  A    between atoms: C_8  and  C_10
REMARK    6  A    between atoms: C_10  and  C_11
REMARK    7  A    between atoms: C_11  and  C_12
REMARK    8  A    between atoms: C_12  and  O_14
REMARK    9  A    between atoms: O_14  and  C_15
REMARK   10  A    between atoms: C_15  and  C_16
REMARK   11  A    between atoms: C_16  and  N_17
REMARK                            x       y       z     vdW  Elec       q    Type
REMARK                         _______ _______ _______ _____ _____    ______ ____
ROOT
ATOM      1  C   UNL     1     -11.051  14.452  64.924  0.00  0.00    +0.121 C 
ENDROOT
BRANCH   1   2
ATOM      2  C   UNL     1     -10.860  15.922  64.975  0.00  0.00    +0.318 C 
ATOM      3  O   UNL     1     -11.486  16.598  64.105  0.00  0.00    -0.250 OA
BRANCH   2   4
ATOM      4  O   UNL     1      -9.749  16.459  65.630  0.00  0.00    -0.442 OA
BRANCH   4   5
ATOM      5  C   UNL     1     -10.047  17.359  66.696  0.00  0.00    +0.269 C 
BRANCH   5   6
ATOM      6  C   UNL     1      -9.336  18.663  66.444  0.00  0.00    +0.157 C 
BRANCH   6   8
ATOM      7  C   UNL     1      -7.851  20.212  67.405  0.00  0.00    +0.171 C 
ATOM      8  N   UNL     1      -8.680  19.065  67.685  0.00  0.00    +0.313 N 
ATOM      9  C   UNL     1      -9.630  19.380  68.723  0.00  0.00    +0.171 C 
ATOM     10  C   UNL     1      -7.785  17.993  68.111  0.00  0.00    +0.171 C 
ENDBRANCH   6   8
ENDBRANCH   5   6
ENDBRANCH   4   5
ENDBRANCH   2   4
ENDBRANCH   1   2
BRANCH   1  11
ATOM     11  C   UNL     1     -12.213  14.118  65.833  0.00  0.00    +0.121 C 
BRANCH  11  12
ATOM     12  C   UNL     1     -11.751  13.360  67.037  0.00  0.00    +0.318 C 
ATOM     13  O   UNL     1     -12.004  12.124  67.171  0.00  0.00    -0.250 OA
BRANCH  12  14
ATOM     14  O   UNL     1     -11.193  13.982  68.147  0.00  0.00    -0.442 OA
BRANCH  14  15
ATOM     15  C   UNL     1     -12.002  14.504  69.192  0.00  0.00    +0.269 C 
BRANCH  15  16
ATOM     16  C   UNL     1     -12.089  13.578  70.373  0.00  0.00    +0.157 C 
BRANCH  16  17
ATOM     17  N   UNL     1     -12.734  14.323  71.448  0.00  0.00    +0.313 N 
ATOM     18  C   UNL     1     -13.480  13.436  72.336  0.00  0.00    +0.171 C 
ATOM     19  C   UNL     1     -13.713  15.247  70.880  0.00  0.00    +0.171 C 
ATOM     20  C   UNL     1     -11.728  15.050  72.202  0.00  0.00    +0.171 C 
ENDBRANCH  16  17
ENDBRANCH  15  16
ENDBRANCH  14  15
ENDBRANCH  12  14
ENDBRANCH  11  12
ENDBRANCH   1  11
TORSDOF 11
ENDMDL
MODEL 4
REMARK VINA RESULT:      -5.0      2.041      4.066
REMARK  Name = 
REMARK  11 active torsions:
REMARK  status: ('A' for Active; 'I' for Inactive)
REMARK    1  A    between atoms: N_2  and  C_5
REMARK    2  A    between atoms: C_5  and  C_6
REMARK    3  A    between atoms: C_6  and  O_7
REMARK    4  A    between atoms: O_7  and  C_8
REMARK    5  A    between atoms: C_8  and  C_10
REMARK    6  A    between atoms: C_10  and  C_11
REMARK    7  A    between atoms: C_11  and  C_12
REMARK    8  A    between atoms: C_12  and  O_14
REMARK    9  A    between atoms: O_14  and  C_15
REMARK   10  A    between atoms: C_15  and  C_16
REMARK   11  A    between atoms: C_16  and  N_17
REMARK                            x       y       z     vdW  Elec       q    Type
REMARK                         _______ _______ _______ _____ _____    ______ ____
ROOT
ATOM      1  C   UNL     1     -10.011  18.276  68.521  0.00  0.00    +0.121 C 
ENDROOT
BRANCH   1   2
ATOM      2  C   UNL     1     -10.202  16.951  69.158  0.00  0.00    +0.318 C 
ATOM      3  O   UNL     1      -9.192  16.185  69.171  0.00  0.00    -0.250 OA
BRANCH   2   4
ATOM      4  O   UNL     1     -11.490  16.433  69.320  0.00  0.00    -0.442 OA
BRANCH   4   5
ATOM      5  C   UNL     1     -11.815  16.012  70.644  0.00  0.00    +0.269 C 
BRANCH   5   6
ATOM      6  C   UNL     1     -12.690  14.789  70.564  0.00  0.00    +0.157 C 
BRANCH   6   8
ATOM      7  C   UNL     1     -13.507  13.309  72.199  0.00  0.00    +0.171 C 
ATOM      8  N   UNL     1     -13.448  14.698  71.808  0.00  0.00    +0.313 N 
ATOM      9  C   UNL     1     -12.859  15.486  72.862  0.00  0.00    +0.171 C 
ATOM     10  C   UNL     1     -14.823  15.120  71.553  0.00  0.00    +0.171 C 
ENDBRANCH   6   8
ENDBRANCH   5   6
ENDBRANCH   4   5
ENDBRANCH   2   4
ENDBRANCH   1   2
BRANCH   1  11
ATOM     11  C   UNL     1     -10.773  18.261  67.214  0.00  0.00    +0.121 C 
BRANCH  11  12
ATOM     12  C   UNL     1      -9.946  17.664  66.120  0.00  0.00    +0.318 C 
ATOM     13  O   UNL     1      -8.703  17.900  66.033  0.00  0.00    -0.250 OA
BRANCH  12  14
ATOM     14  O   UNL     1     -10.504  16.983  65.045  0.00  0.00    -0.442 OA
BRANCH  14  15
ATOM     15  C   UNL     1     -10.881  15.616  65.145  0.00  0.00    +0.269 C 
BRANCH  15  16
ATOM     16  C   UNL     1      -9.964  14.828  66.038  0.00  0.00    +0.157 C 
BRANCH  16  17
ATOM     17  N   UNL     1     -10.739  13.705  66.553  0.00  0.00    +0.313 N 
ATOM     18  C   UNL     1     -10.806  12.616  65.583  0.00  0.00    +0.171 C 
ATOM     19  C   UNL     1     -12.118  14.130  66.782  0.00  0.00    +0.171 C 
ATOM     20  C   UNL     1     -10.143  13.234  67.790  0.00  0.00    +0.171 C 
ENDBRANCH  16  17
ENDBRANCH  15  16
ENDBRANCH  14  15
ENDBRANCH  12  14
ENDBRANCH  11  12
ENDBRANCH   1  11
TORSDOF 11
ENDMDL
MODEL 5
REMARK VINA RESULT:      -4.9      2.271      6.261
REMARK  Name = 
REMARK  11 active torsions:
REMARK  status: ('A' for Active; 'I' for Inactive)
REMARK    1  A    between atoms: N_2  and  C_5
REMARK    2  A    between atoms: C_5  and  C_6
REMARK    3  A    between atoms: C_6  and  O_7
REMARK    4  A    between atoms: O_7  and  C_8
REMARK    5  A    between atoms: C_8  and  C_10
REMARK    6  A    between atoms: C_10  and  C_11
REMARK    7  A    between atoms: C_11  and  C_12
REMARK    8  A    between atoms: C_12  and  O_14
REMARK    9  A    between atoms: O_14  and  C_15
REMARK   10  A    between atoms: C_15  and  C_16
REMARK   11  A    between atoms: C_16  and  N_17
REMARK                            x       y       z     vdW  Elec       q    Type
REMARK                         _______ _______ _______ _____ _____    ______ ____
ROOT
ATOM      1  C   UNL     1     -10.398  18.196  66.760  0.00  0.00    +0.121 C 
ENDROOT
BRANCH   1   2
ATOM      2  C   UNL     1      -9.720  17.093  66.038  0.00  0.00    +0.318 C 
ATOM      3  O   UNL     1      -8.473  17.229  65.851  0.00  0.00    -0.250 OA
BRANCH   2   4
ATOM      4  O   UNL     1     -10.465  16.211  65.251  0.00  0.00    -0.442 OA
BRANCH   4   5
ATOM      5  C   UNL     1     -10.743  14.946  65.849  0.00  0.00    +0.269 C 
BRANCH   5   6
ATOM      6  C   UNL     1     -10.501  13.863  64.831  0.00  0.00    +0.157 C 
BRANCH   6   8
ATOM      7  C   UNL     1     -12.421  12.591  64.352  0.00  0.00    +0.171 C 
ATOM      8  N   UNL     1     -11.278  12.692  65.228  0.00  0.00    +0.313 N 
ATOM      9  C   UNL     1     -10.499  11.480  65.170  0.00  0.00    +0.171 C 
ATOM     10  C   UNL     1     -11.799  12.908  66.575  0.00  0.00    +0.171 C 
ENDBRANCH   6   8
ENDBRANCH   5   6
ENDBRANCH   4   5
ENDBRANCH   2   4
ENDBRANCH   1   2
BRANCH   1  11
ATOM     11  C   UNL     1      -9.897  18.174  68.188  0.00  0.00    +0.121 C 
BRANCH  11  12
ATOM     12  C   UNL     1     -10.339  16.929  68.891  0.00  0.00    +0.318 C 
ATOM     13  O   UNL     1      -9.497  16.077  69.307  0.00  0.00    -0.250 OA
BRANCH  12  14
ATOM     14  O   UNL     1     -11.671  16.543  68.965  0.00  0.00    -0.442 OA
BRANCH  14  15
ATOM     15  C   UNL     1     -12.088  15.464  69.791  0.00  0.00    +0.269 C 
BRANCH  15  16
ATOM     16  C   UNL     1     -12.309  15.881  71.218  0.00  0.00    +0.157 C 
BRANCH  16  17
ATOM     17  N   UNL     1     -13.119  14.840  71.842  0.00  0.00    +0.313 N 
ATOM     18  C   UNL     1     -14.545  15.089  71.646  0.00  0.00    +0.171 C 
ATOM     19  C   UNL     1     -12.899  14.853  73.286  0.00  0.00    +0.171 C 
ATOM     20  C   UNL     1     -12.759  13.549  71.285  0.00  0.00    +0.171 C 
ENDBRANCH  16  17
ENDBRANCH  15  16
ENDBRANCH  14  15
ENDBRANCH  12  14
ENDBRANCH  11  12
ENDBRANCH   1  11
TORSDOF 11
ENDMDL
MODEL 6
REMARK VINA RESULT:      -4.9      3.854      6.245
REMARK  Name = 
REMARK  11 active torsions:
REMARK  status: ('A' for Active; 'I' for Inactive)
REMARK    1  A    between atoms: N_2  and  C_5
REMARK    2  A    between atoms: C_5  and  C_6
REMARK    3  A    between atoms: C_6  and  O_7
REMARK    4  A    between atoms: O_7  and  C_8
REMARK    5  A    between atoms: C_8  and  C_10
REMARK    6  A    between atoms: C_10  and  C_11
REMARK    7  A    between atoms: C_11  and  C_12
REMARK    8  A    between atoms: C_12  and  O_14
REMARK    9  A    between atoms: O_14  and  C_15
REMARK   10  A    between atoms: C_15  and  C_16
REMARK   11  A    between atoms: C_16  and  N_17
REMARK                            x       y       z     vdW  Elec       q    Type
REMARK                         _______ _______ _______ _____ _____    ______ ____
ROOT
ATOM      1  C   UNL     1     -10.602  14.605  64.884  0.00  0.00    +0.121 C 
ENDROOT
BRANCH   1   2
ATOM      2  C   UNL     1     -10.907  16.056  64.907  0.00  0.00    +0.318 C 
ATOM      3  O   UNL     1     -11.596  16.498  63.940  0.00  0.00    -0.250 OA
BRANCH   2   4
ATOM      4  O   UNL     1     -10.128  16.921  65.680  0.00  0.00    -0.442 OA
BRANCH   4   5
ATOM      5  C   UNL     1      -9.744  16.416  66.958  0.00  0.00    +0.269 C 
BRANCH   5   6
ATOM      6  C   UNL     1     -10.834  16.725  67.951  0.00  0.00    +0.157 C 
BRANCH   6   8
ATOM      7  C   UNL     1      -9.576  15.011  68.955  0.00  0.00    +0.171 C 
ATOM      8  N   UNL     1     -10.875  15.639  68.926  0.00  0.00    +0.313 N 
ATOM      9  C   UNL     1     -11.231  16.106  70.242  0.00  0.00    +0.171 C 
ATOM     10  C   UNL     1     -11.821  14.628  68.462  0.00  0.00    +0.171 C 
ENDBRANCH   6   8
ENDBRANCH   5   6
ENDBRANCH   4   5
ENDBRANCH   2   4
ENDBRANCH   1   2
BRANCH   1  11
ATOM     11  C   UNL     1     -11.923  13.869  64.826  0.00  0.00    +0.121 C 
BRANCH  11  12
ATOM     12  C   UNL     1     -11.895  12.800  63.779  0.00  0.00    +0.318 C 
ATOM     13  O   UNL     1     -12.960  12.228  63.398  0.00  0.00    -0.250 OA
BRANCH  12  14
ATOM     14  O   UNL     1     -10.713  12.246  63.305  0.00  0.00    -0.442 OA
BRANCH  14  15
ATOM     15  C   UNL     1     -10.393  10.878  63.520  0.00  0.00    +0.269 C 
BRANCH  15  16
ATOM     16  C   UNL     1     -10.131  10.567  64.968  0.00  0.00    +0.157 C 
BRANCH  16  17
ATOM     17  N   UNL     1      -8.965   9.692  65.007  0.00  0.00    +0.313 N 
ATOM     18  C   UNL     1      -9.199   8.532  65.863  0.00  0.00    +0.171 C 
ATOM     19  C   UNL     1      -7.838  10.411  65.597  0.00  0.00    +0.171 C 
ATOM     20  C   UNL     1      -8.641   9.259  63.661  0.00  0.00    +0.171 C 
ENDBRANCH  16  17
ENDBRANCH  15  16
ENDBRANCH  14  15
ENDBRANCH  12  14
ENDBRANCH  11  12
ENDBRANCH   1  11
TORSDOF 11
ENDMDL
MODEL 7
REMARK VINA RESULT:      -4.8      2.808      4.413
REMARK  Name = 
REMARK  11 active torsions:
REMARK  status: ('A' for Active; 'I' for Inactive)
REMARK    1  A    between atoms: N_2  and  C_5
REMARK    2  A    between atoms: C_5  and  C_6
REMARK    3  A    between atoms: C_6  and  O_7
REMARK    4  A    between atoms: O_7  and  C_8
REMARK    5  A    between atoms: C_8  and  C_10
REMARK    6  A    between atoms: C_10  and  C_11
REMARK    7  A    between atoms: C_11  and  C_12
REMARK    8  A    between atoms: C_12  and  O_14
REMARK    9  A    between atoms: O_14  and  C_15
REMARK   10  A    between atoms: C_15  and  C_16
REMARK   11  A    between atoms: C_16  and  N_17
REMARK                            x       y       z     vdW  Elec       q    Type
REMARK                         _______ _______ _______ _____ _____    ______ ____
ROOT
ATOM      1  C   UNL     1     -11.288  15.751  67.568  0.00  0.00    +0.121 C 
ENDROOT
BRANCH   1   2
ATOM      2  C   UNL     1     -10.613  15.946  68.874  0.00  0.00    +0.318 C 
ATOM      3  O   UNL     1      -9.668  15.145  69.142  0.00  0.00    -0.250 OA
BRANCH   2   4
ATOM      4  O   UNL     1     -11.255  16.656  69.893  0.00  0.00    -0.442 OA
BRANCH   4   5
ATOM      5  C   UNL     1     -11.677  15.872  71.008  0.00  0.00    +0.269 C 
BRANCH   5   6
ATOM      6  C   UNL     1     -12.904  15.091  70.616  0.00  0.00    +0.157 C 
BRANCH   6   8
ATOM      7  C   UNL     1     -15.072  15.076  71.527  0.00  0.00    +0.171 C 
ATOM      8  N   UNL     1     -13.680  14.837  71.826  0.00  0.00    +0.313 N 
ATOM      9  C   UNL     1     -13.500  13.492  72.314  0.00  0.00    +0.171 C 
ATOM     10  C   UNL     1     -13.296  15.812  72.844  0.00  0.00    +0.171 C 
ENDBRANCH   6   8
ENDBRANCH   5   6
ENDBRANCH   4   5
ENDBRANCH   2   4
ENDBRANCH   1   2
BRANCH   1  11
ATOM     11  C   UNL     1     -10.273  16.053  66.488  0.00  0.00    +0.121 C 
BRANCH  11  12
ATOM     12  C   UNL     1     -10.859  15.837  65.128  0.00  0.00    +0.318 C 
ATOM     13  O   UNL     1     -11.181  16.817  64.390  0.00  0.00    -0.250 OA
BRANCH  12  14
ATOM     14  O   UNL     1     -11.253  14.586  64.671  0.00  0.00    -0.442 OA
BRANCH  14  15
ATOM     15  C   UNL     1     -10.426  13.441  64.831  0.00  0.00    +0.269 C 
BRANCH  15  16
ATOM     16  C   UNL     1     -11.199  12.225  65.257  0.00  0.00    +0.157 C 
BRANCH  16  17
ATOM     17  N   UNL     1     -10.625  11.781  66.522  0.00  0.00    +0.313 N 
ATOM     18  C   UNL     1     -11.494  12.116  67.647  0.00  0.00    +0.171 C 
ATOM     19  C   UNL     1      -9.367  12.485  66.758  0.00  0.00    +0.171 C 
ATOM     20  C   UNL     1     -10.403  10.348  66.475  0.00  0.00    +0.171 C 
ENDBRANCH  16  17
ENDBRANCH  15  16
ENDBRANCH  14  15
ENDBRANCH  12  14
ENDBRANCH  11  12
ENDBRANCH   1  11
TORSDOF 11
ENDMDL
MODEL 8
REMARK VINA RESULT:      -4.8      1.631      2.316
REMARK  Name = 
REMARK  11 active torsions:
REMARK  status: ('A' for Active; 'I' for Inactive)
REMARK    1  A    between atoms: N_2  and  C_5
REMARK    2  A    between atoms: C_5  and  C_6
REMARK    3  A    between atoms: C_6  and  O_7
REMARK    4  A    between atoms: O_7  and  C_8
REMARK    5  A    between atoms: C_8  and  C_10
REMARK    6  A    between atoms: C_10  and  C_11
REMARK    7  A    between atoms: C_11  and  C_12
REMARK    8  A    between atoms: C_12  and  O_14
REMARK    9  A    between atoms: O_14  and  C_15
REMARK   10  A    between atoms: C_15  and  C_16
REMARK   11  A    between atoms: C_16  and  N_17
REMARK                            x       y       z     vdW  Elec       q    Type
REMARK                         _______ _______ _______ _____ _____    ______ ____
ROOT
ATOM      1  C   UNL     1     -12.008  13.527  67.531  0.00  0.00    +0.121 C 
ENDROOT
BRANCH   1   2
ATOM      2  C   UNL     1     -11.811  12.254  68.264  0.00  0.00    +0.318 C 
ATOM      3  O   UNL     1     -11.995  11.190  67.600  0.00  0.00    -0.250 OA
BRANCH   2   4
ATOM      4  O   UNL     1     -11.859  12.238  69.661  0.00  0.00    -0.442 OA
BRANCH   4   5
ATOM      5  C   UNL     1     -11.940  13.520  70.282  0.00  0.00    +0.269 C 
BRANCH   5   6
ATOM      6  C   UNL     1     -12.914  13.444  71.428  0.00  0.00    +0.157 C 
BRANCH   6   8
ATOM      7  C   UNL     1     -12.986  14.964  73.221  0.00  0.00    +0.171 C 
ATOM      8  N   UNL     1     -13.262  14.809  71.813  0.00  0.00    +0.313 N 
ATOM      9  C   UNL     1     -12.530  15.790  71.052  0.00  0.00    +0.171 C 
ATOM     10  C   UNL     1     -14.701  14.991  71.644  0.00  0.00    +0.171 C 
ENDBRANCH   6   8
ENDBRANCH   5   6
ENDBRANCH   4   5
ENDBRANCH   2   4
ENDBRANCH   1   2
BRANCH   1  11
ATOM     11  C   UNL     1     -11.965  13.206  66.053  0.00  0.00    +0.121 C 
BRANCH  11  12
ATOM     12  C   UNL     1     -10.671  13.648  65.446  0.00  0.00    +0.318 C 
ATOM     13  O   UNL     1     -10.342  13.296  64.273  0.00  0.00    -0.250 OA
BRANCH  12  14
ATOM     14  O   UNL     1      -9.685  14.300  66.176  0.00  0.00    -0.442 OA
BRANCH  14  15
ATOM     15  C   UNL     1      -9.263  15.617  65.847  0.00  0.00    +0.269 C 
BRANCH  15  16
ATOM     16  C   UNL     1     -10.392  16.609  65.878  0.00  0.00    +0.157 C 
BRANCH  16  17
ATOM     17  N   UNL     1      -9.947  17.730  66.699  0.00  0.00    +0.313 N 
ATOM     18  C   UNL     1     -10.435  19.001  66.171  0.00  0.00    +0.171 C 
ATOM     19  C   UNL     1      -8.488  17.808  66.663  0.00  0.00    +0.171 C 
ATOM     20  C   UNL     1     -10.412  17.546  68.061  0.00  0.00    +0.171 C 
ENDBRANCH  16  17
ENDBRANCH  15  16
ENDBRANCH  14  15
ENDBRANCH  12  14
ENDBRANCH  11  12
ENDBRANCH   1  11
TORSDOF 11
ENDMDL
MODEL 9
REMARK VINA RESULT:      -4.8      2.553      6.240
REMARK  Name = 
REMARK  11 active torsions:
REMARK  status: ('A' for Active; 'I' for Inactive)
REMARK    1  A    between atoms: N_2  and  C_5
REMARK    2  A    between atoms: C_5  and  C_6
REMARK    3  A    between atoms: C_6  and  O_7
REMARK    4  A    between atoms: O_7  and  C_8
REMARK    5  A    between atoms: C_8  and  C_10
REMARK    6  A    between atoms: C_10  and  C_11
REMARK    7  A    between atoms: C_11  and  C_12
REMARK    8  A    between atoms: C_12  and  O_14
REMARK    9  A    between atoms: O_14  and  C_15
REMARK   10  A    between atoms: C_15  and  C_16
REMARK   11  A    between atoms: C_16  and  N_17
REMARK                            x       y       z     vdW  Elec       q    Type
REMARK                         _______ _______ _______ _____ _____    ______ ____
ROOT
ATOM      1  C   UNL     1      -8.319  17.037  67.967  0.00  0.00    +0.121 C 
ENDROOT
BRANCH   1   2
ATOM      2  C   UNL     1      -8.438  16.469  66.602  0.00  0.00    +0.318 C 
ATOM      3  O   UNL     1      -8.756  17.281  65.683  0.00  0.00    -0.250 OA
BRANCH   2   4
ATOM      4  O   UNL     1      -8.622  15.094  66.432  0.00  0.00    -0.442 OA
BRANCH   4   5
ATOM      5  C   UNL     1      -9.827  14.718  65.768  0.00  0.00    +0.269 C 
BRANCH   5   6
ATOM      6  C   UNL     1     -10.045  13.240  65.953  0.00  0.00    +0.157 C 
BRANCH   6   8
ATOM      7  C   UNL     1     -11.500  11.967  67.292  0.00  0.00    +0.171 C 
ATOM      8  N   UNL     1     -11.443  13.034  66.321  0.00  0.00    +0.313 N 
ATOM      9  C   UNL     1     -12.043  14.228  66.860  0.00  0.00    +0.171 C 
ATOM     10  C   UNL     1     -12.175  12.572  65.145  0.00  0.00    +0.171 C 
ENDBRANCH   6   8
ENDBRANCH   5   6
ENDBRANCH   4   5
ENDBRANCH   2   4
ENDBRANCH   1   2
BRANCH   1  11
ATOM     11  C   UNL     1      -9.099  16.135  68.898  0.00  0.00    +0.121 C 
BRANCH  11  12
ATOM     12  C   UNL     1     -10.482  16.661  69.120  0.00  0.00    +0.318 C 
ATOM     13  O   UNL     1     -11.008  17.484  68.311  0.00  0.00    -0.250 OA
BRANCH  12  14
ATOM     14  O   UNL     1     -11.190  16.437  70.293  0.00  0.00    -0.442 OA
BRANCH  14  15
ATOM     15  C   UNL     1     -12.366  15.638  70.312  0.00  0.00    +0.269 C 
BRANCH  15  16
ATOM     16  C   UNL     1     -12.191  14.372  71.102  0.00  0.00    +0.157 C 
BRANCH  16  17
ATOM     17  N   UNL     1     -13.251  14.349  72.104  0.00  0.00    +0.313 N 
ATOM     18  C   UNL     1     -14.387  15.169  71.693  0.00  0.00    +0.171 C 
ATOM     19  C   UNL     1     -12.756  14.934  73.348  0.00  0.00    +0.171 C 
ATOM     20  C   UNL     1     -13.679  12.980  72.323  0.00  0.00    +0.171 C 
ENDBRANCH  16  17
ENDBRANCH  15  16
ENDBRANCH  14  15
ENDBRANCH  12  14
ENDBRANCH  11  12
ENDBRANCH   1  11
TORSDOF 11
ENDMDL
