MODEL 1
REMARK VINA RESULT:      -6.0      0.000      0.000
REMARK  Name = 
REMARK  16 active torsions:
REMARK  status: ('A' for Active; 'I' for Inactive)
REMARK    1  A    between atoms: C_2  and  C_4
REMARK    2  A    between atoms: C_4  and  N_5
REMARK    3  A    between atoms: N_5  and  C_6
REMARK    4  A    between atoms: N_5  and  C_17
REMARK    5  A    between atoms: C_6  and  C_7
REMARK    6  A    between atoms: C_7  and  N_8
REMARK    7  A    between atoms: N_8  and  C_9
REMARK    8  A    between atoms: N_8  and  C_13
REMARK    9  A    between atoms: C_9  and  C_10
REMARK   10  A    between atoms: C_13  and  C_14
REMARK   11  A    between atoms: C_17  and  C_18
REMARK   12  A    between atoms: C_18  and  N_19
REMARK   13  A    between atoms: N_19  and  C_20
REMARK   14  A    between atoms: N_19  and  C_24
REMARK   15  A    between atoms: C_20  and  C_21
REMARK   16  A    between atoms: C_24  and  C_25
REMARK                            x       y       z     vdW  Elec       q    Type
REMARK                         _______ _______ _______ _____ _____    ______ ____
ROOT
ATOM      1  N   UNL     1     -11.245  15.993  68.126  0.00  0.00    -0.261 NA
ENDROOT
BRANCH   1   2
ATOM      2  C   UNL     1     -11.218  15.599  69.519  0.00  0.00    +0.090 C 
BRANCH   2   3
ATOM      3  C   UNL     1     -12.674  15.500  69.955  0.00  0.00    +0.091 C 
BRANCH   3   4
ATOM      4  N   UNL     1     -12.681  14.886  71.259  0.00  0.00    -0.252 NA
BRANCH   4   5
ATOM      5  C   UNL     1     -11.804  15.580  72.200  0.00  0.00    +0.188 C 
BRANCH   5   6
ATOM      6  C   UNL     1     -12.559  16.005  73.422  0.00  0.00    +0.381 C 
ATOM      7  O   UNL     1     -13.886  16.400  73.287  0.00  0.00    -0.244 OA
ATOM      8  O   UNL     1     -12.284  15.355  74.476  0.00  0.00    -0.244 OA
ENDBRANCH   5   6
ENDBRANCH   4   5
BRANCH   4   9
ATOM      9  C   UNL     1     -12.327  13.488  71.236  0.00  0.00    +0.188 C 
BRANCH   9  10
ATOM     10  C   UNL     1     -13.362  12.716  71.964  0.00  0.00    +0.381 C 
ATOM     11  O   UNL     1     -14.494  13.330  72.485  0.00  0.00    -0.244 OA
ATOM     12  O   UNL     1     -13.298  11.450  71.960  0.00  0.00    -0.244 OA
ENDBRANCH   9  10
ENDBRANCH   4   9
ENDBRANCH   3   4
ENDBRANCH   2   3
ENDBRANCH   1   2
BRANCH   1  13
ATOM     13  C   UNL     1     -11.641  14.923  67.252  0.00  0.00    +0.090 C 
BRANCH  13  14
ATOM     14  C   UNL     1     -10.410  14.501  66.460  0.00  0.00    +0.091 C 
BRANCH  14  15
ATOM     15  N   UNL     1     -10.600  13.144  66.075  0.00  0.00    -0.252 NA
BRANCH  15  16
ATOM     16  C   UNL     1      -9.917  12.165  66.845  0.00  0.00    +0.188 C 
BRANCH  16  17
ATOM     17  C   UNL     1     -10.768  11.070  67.357  0.00  0.00    +0.381 C 
ATOM     18  O   UNL     1     -10.617   9.821  66.745  0.00  0.00    -0.244 OA
ATOM     19  O   UNL     1     -11.969  11.378  67.622  0.00  0.00    -0.244 OA
ENDBRANCH  16  17
ENDBRANCH  15  16
BRANCH  15  20
ATOM     20  C   UNL     1     -10.675  12.898  64.671  0.00  0.00    +0.188 C 
BRANCH  20  21
ATOM     21  C   UNL     1     -12.115  13.027  64.281  0.00  0.00    +0.381 C 
ATOM     22  O   UNL     1     -12.550  14.075  63.463  0.00  0.00    -0.244 OA
ATOM     23  O   UNL     1     -13.035  12.416  64.905  0.00  0.00    -0.244 OA
ENDBRANCH  20  21
ENDBRANCH  15  20
ENDBRANCH  14  15
ENDBRANCH  13  14
ENDBRANCH   1  13
BRANCH   1  24
ATOM     24  C   UNL     1     -10.029  16.655  67.717  0.00  0.00    +0.188 C 
BRANCH  24  26
ATOM     25  O   UNL     1     -10.758  18.964  67.710  0.00  0.00    -0.244 OA
ATOM     26  C   UNL     1     -10.435  17.932  67.057  0.00  0.00    +0.381 C 
ATOM     27  O   UNL     1     -10.344  18.115  65.674  0.00  0.00    -0.244 OA
ENDBRANCH  24  26
ENDBRANCH   1  24
TORSDOF 16
ENDMDL
MODEL 2
REMARK VINA RESULT:      -5.9      0.771      2.249
REMARK  Name = 
REMARK  16 active torsions:
REMARK  status: ('A' for Active; 'I' for Inactive)
REMARK    1  A    between atoms: C_2  and  C_4
REMARK    2  A    between atoms: C_4  and  N_5
REMARK    3  A    between atoms: N_5  and  C_6
REMARK    4  A    between atoms: N_5  and  C_17
REMARK    5  A    between atoms: C_6  and  C_7
REMARK    6  A    between atoms: C_7  and  N_8
REMARK    7  A    between atoms: N_8  and  C_9
REMARK    8  A    between atoms: N_8  and  C_13
REMARK    9  A    between atoms: C_9  and  C_10
REMARK   10  A    between atoms: C_13  and  C_14
REMARK   11  A    between atoms: C_17  and  C_18
REMARK   12  A    between atoms: C_18  and  N_19
REMARK   13  A    between atoms: N_19  and  C_20
REMARK   14  A    between atoms: N_19  and  C_24
REMARK   15  A    between atoms: C_20  and  C_21
REMARK   16  A    between atoms: C_24  and  C_25
REMARK                            x       y       z     vdW  Elec       q    Type
REMARK                         _______ _______ _______ _____ _____    ______ ____
ROOT
ATOM      1  N   UNL     1     -11.260  16.178  68.310  0.00  0.00    -0.261 NA
ENDROOT
BRANCH   1   2
ATOM      2  C   UNL     1     -11.814  15.239  69.264  0.00  0.00    +0.090 C 
BRANCH   2   3
ATOM      3  C   UNL     1     -12.002  16.019  70.559  0.00  0.00    +0.091 C 
BRANCH   3   4
ATOM      4  N   UNL     1     -12.516  15.092  71.536  0.00  0.00    -0.252 NA
BRANCH   4   5
ATOM      5  C   UNL     1     -11.866  15.244  72.837  0.00  0.00    +0.188 C 
BRANCH   5   6
ATOM      6  C   UNL     1     -12.662  16.145  73.730  0.00  0.00    +0.381 C 
ATOM      7  O   UNL     1     -13.971  16.456  73.375  0.00  0.00    -0.244 OA
ATOM      8  O   UNL     1     -12.451  15.992  74.971  0.00  0.00    -0.244 OA
ENDBRANCH   5   6
ENDBRANCH   4   5
BRANCH   4   9
ATOM      9  C   UNL     1     -12.417  13.713  71.124  0.00  0.00    +0.188 C 
BRANCH   9  10
ATOM     10  C   UNL     1     -13.386  12.906  71.903  0.00  0.00    +0.381 C 
ATOM     11  O   UNL     1     -14.557  13.461  72.405  0.00  0.00    -0.244 OA
ATOM     12  O   UNL     1     -13.229  11.650  71.964  0.00  0.00    -0.244 OA
ENDBRANCH   9  10
ENDBRANCH   4   9
ENDBRANCH   3   4
ENDBRANCH   2   3
ENDBRANCH   1   2
BRANCH   1  13
ATOM     13  C   UNL     1     -10.728  15.534  67.140  0.00  0.00    +0.090 C 
BRANCH  13  14
ATOM     14  C   UNL     1     -11.231  14.096  67.143  0.00  0.00    +0.091 C 
BRANCH  14  15
ATOM     15  N   UNL     1     -10.403  13.358  66.252  0.00  0.00    -0.252 NA
BRANCH  15  16
ATOM     16  C   UNL     1     -10.886  13.195  64.925  0.00  0.00    +0.188 C 
BRANCH  16  17
ATOM     17  C   UNL     1     -12.313  13.531  64.736  0.00  0.00    +0.381 C 
ATOM     18  O   UNL     1     -13.210  12.458  64.704  0.00  0.00    -0.244 OA
ATOM     19  O   UNL     1     -12.562  14.443  63.891  0.00  0.00    -0.244 OA
ENDBRANCH  16  17
ENDBRANCH  15  16
BRANCH  15  20
ATOM     20  C   UNL     1      -9.725  12.235  66.814  0.00  0.00    +0.188 C 
BRANCH  20  21
ATOM     21  C   UNL     1     -10.644  11.059  66.685  0.00  0.00    +0.381 C 
ATOM     22  O   UNL     1     -11.727  10.891  67.554  0.00  0.00    -0.244 OA
ATOM     23  O   UNL     1     -10.320  10.026  66.025  0.00  0.00    -0.244 OA
ENDBRANCH  20  21
ENDBRANCH  15  20
ENDBRANCH  14  15
ENDBRANCH  13  14
ENDBRANCH   1  13
BRANCH   1  24
ATOM     24  C   UNL     1     -10.346  17.112  68.924  0.00  0.00    +0.188 C 
BRANCH  24  26
ATOM     25  O   UNL     1     -11.084  18.997  67.594  0.00  0.00    -0.244 OA
ATOM     26  C   UNL     1     -10.148  18.224  67.947  0.00  0.00    +0.381 C 
ATOM     27  O   UNL     1      -8.882  18.578  67.470  0.00  0.00    -0.244 OA
ENDBRANCH  24  26
ENDBRANCH   1  24
TORSDOF 16
ENDMDL
MODEL 3
REMARK VINA RESULT:      -5.8      1.893      3.299
REMARK  Name = 
REMARK  16 active torsions:
REMARK  status: ('A' for Active; 'I' for Inactive)
REMARK    1  A    between atoms: C_2  and  C_4
REMARK    2  A    between atoms: C_4  and  N_5
REMARK    3  A    between atoms: N_5  and  C_6
REMARK    4  A    between atoms: N_5  and  C_17
REMARK    5  A    between atoms: C_6  and  C_7
REMARK    6  A    between atoms: C_7  and  N_8
REMARK    7  A    between atoms: N_8  and  C_9
REMARK    8  A    between atoms: N_8  and  C_13
REMARK    9  A    between atoms: C_9  and  C_10
REMARK   10  A    between atoms: C_13  and  C_14
REMARK   11  A    between atoms: C_17  and  C_18
REMARK   12  A    between atoms: C_18  and  N_19
REMARK   13  A    between atoms: N_19  and  C_20
REMARK   14  A    between atoms: N_19  and  C_24
REMARK   15  A    between atoms: C_20  and  C_21
REMARK   16  A    between atoms: C_24  and  C_25
REMARK                            x       y       z     vdW  Elec       q    Type
REMARK                         _______ _______ _______ _____ _____    ______ ____
ROOT
ATOM      1  N   UNL     1     -10.644  15.458  68.757  0.00  0.00    -0.261 NA
ENDROOT
BRANCH   1   2
ATOM      2  C   UNL     1     -11.460  15.996  69.825  0.00  0.00    +0.090 C 
BRANCH   2   3
ATOM      3  C   UNL     1     -11.266  15.061  71.013  0.00  0.00    +0.091 C 
BRANCH   3   4
ATOM      4  N   UNL     1     -12.341  15.327  71.935  0.00  0.00    -0.252 NA
BRANCH   4   5
ATOM      5  C   UNL     1     -13.608  15.574  71.250  0.00  0.00    +0.188 C 
BRANCH   5   6
ATOM      6  C   UNL     1     -14.580  14.462  71.502  0.00  0.00    +0.381 C 
ATOM      7  O   UNL     1     -14.313  13.558  72.526  0.00  0.00    -0.244 OA
ATOM      8  O   UNL     1     -15.800  14.768  71.343  0.00  0.00    -0.244 OA
ENDBRANCH   5   6
ENDBRANCH   4   5
BRANCH   4   9
ATOM      9  C   UNL     1     -12.071  16.427  72.828  0.00  0.00    +0.188 C 
BRANCH   9  10
ATOM     10  C   UNL     1     -12.212  15.959  74.227  0.00  0.00    +0.381 C 
ATOM     11  O   UNL     1     -12.401  16.851  75.276  0.00  0.00    -0.244 OA
ATOM     12  O   UNL     1     -12.336  14.718  74.450  0.00  0.00    -0.244 OA
ENDBRANCH   9  10
ENDBRANCH   4   9
ENDBRANCH   3   4
ENDBRANCH   2   3
ENDBRANCH   1   2
BRANCH   1  13
ATOM     13  C   UNL     1     -11.295  14.397  68.039  0.00  0.00    +0.090 C 
BRANCH  13  14
ATOM     14  C   UNL     1     -10.264  13.779  67.103  0.00  0.00    +0.091 C 
BRANCH  14  15
ATOM     15  N   UNL     1     -10.646  14.113  65.774  0.00  0.00    -0.252 NA
BRANCH  15  16
ATOM     16  C   UNL     1     -11.085  13.040  64.952  0.00  0.00    +0.188 C 
BRANCH  16  17
ATOM     17  C   UNL     1     -12.443  13.201  64.391  0.00  0.00    +0.381 C 
ATOM     18  O   UNL     1     -13.383  13.847  65.201  0.00  0.00    -0.244 OA
ATOM     19  O   UNL     1     -12.903  12.205  63.754  0.00  0.00    -0.244 OA
ENDBRANCH  16  17
ENDBRANCH  15  16
BRANCH  15  20
ATOM     20  C   UNL     1      -9.859  15.115  65.130  0.00  0.00    +0.188 C 
BRANCH  20  21
ATOM     21  C   UNL     1     -10.718  16.337  65.014  0.00  0.00    +0.381 C 
ATOM     22  O   UNL     1     -11.603  16.498  63.942  0.00  0.00    -0.244 OA
ATOM     23  O   UNL     1     -10.469  17.395  65.667  0.00  0.00    -0.244 OA
ENDBRANCH  20  21
ENDBRANCH  15  20
ENDBRANCH  14  15
ENDBRANCH  13  14
ENDBRANCH   1  13
BRANCH   1  24
ATOM     24  C   UNL     1      -9.309  15.126  69.196  0.00  0.00    +0.188 C 
BRANCH  24  26
ATOM     25  O   UNL     1      -7.202  16.310  69.047  0.00  0.00    -0.244 OA
ATOM     26  C   UNL     1      -8.461  16.329  68.942  0.00  0.00    +0.381 C 
ATOM     27  O   UNL     1      -8.991  17.517  68.429  0.00  0.00    -0.244 OA
ENDBRANCH  24  26
ENDBRANCH   1  24
TORSDOF 16
ENDMDL
MODEL 4
REMARK VINA RESULT:      -5.8      0.856      2.271
REMARK  Name = 
REMARK  16 active torsions:
REMARK  status: ('A' for Active; 'I' for Inactive)
REMARK    1  A    between atoms: C_2  and  C_4
REMARK    2  A    between atoms: C_4  and  N_5
REMARK    3  A    between atoms: N_5  and  C_6
REMARK    4  A    between atoms: N_5  and  C_17
REMARK    5  A    between atoms: C_6  and  C_7
REMARK    6  A    between atoms: C_7  and  N_8
REMARK    7  A    between atoms: N_8  and  C_9
REMARK    8  A    between atoms: N_8  and  C_13
REMARK    9  A    between atoms: C_9  and  C_10
REMARK   10  A    between atoms: C_13  and  C_14
REMARK   11  A    between atoms: C_17  and  C_18
REMARK   12  A    between atoms: C_18  and  N_19
REMARK   13  A    between atoms: N_19  and  C_20
REMARK   14  A    between atoms: N_19  and  C_24
REMARK   15  A    between atoms: C_20  and  C_21
REMARK   16  A    between atoms: C_24  and  C_25
REMARK                            x       y       z     vdW  Elec       q    Type
REMARK                         _______ _______ _______ _____ _____    ______ ____
ROOT
ATOM      1  N   UNL     1     -11.050  15.948  68.382  0.00  0.00    -0.261 NA
ENDROOT
BRANCH   1   2
ATOM      2  C   UNL     1     -11.801  16.122  69.607  0.00  0.00    +0.090 C 
BRANCH   2   3
ATOM      3  C   UNL     1     -11.015  15.394  70.689  0.00  0.00    +0.091 C 
BRANCH   3   4
ATOM      4  N   UNL     1     -11.976  14.875  71.630  0.00  0.00    -0.252 NA
BRANCH   4   5
ATOM      5  C   UNL     1     -12.926  13.959  71.000  0.00  0.00    +0.188 C 
BRANCH   5   6
ATOM      6  C   UNL     1     -13.361  12.895  71.960  0.00  0.00    +0.381 C 
ATOM      7  O   UNL     1     -14.574  13.048  72.625  0.00  0.00    -0.244 OA
ATOM      8  O   UNL     1     -13.069  11.710  71.616  0.00  0.00    -0.244 OA
ENDBRANCH   5   6
ENDBRANCH   4   5
BRANCH   4   9
ATOM      9  C   UNL     1     -12.710  15.903  72.324  0.00  0.00    +0.188 C 
BRANCH   9  10
ATOM     10  C   UNL     1     -12.349  15.868  73.761  0.00  0.00    +0.381 C 
ATOM     11  O   UNL     1     -12.386  17.013  74.548  0.00  0.00    -0.244 OA
ATOM     12  O   UNL     1     -12.171  14.746  74.322  0.00  0.00    -0.244 OA
ENDBRANCH   9  10
ENDBRANCH   4   9
ENDBRANCH   3   4
ENDBRANCH   2   3
ENDBRANCH   1   2
BRANCH   1  13
ATOM     13  C   UNL     1     -10.742  14.571  68.108  0.00  0.00    +0.090 C 
BRANCH  13  14
ATOM     14  C   UNL     1     -11.891  14.002  67.285  0.00  0.00    +0.091 C 
BRANCH  14  15
ATOM     15  N   UNL     1     -11.359  12.953  66.485  0.00  0.00    -0.252 NA
BRANCH  15  16
ATOM     16  C   UNL     1     -10.569  11.981  67.157  0.00  0.00    +0.188 C 
BRANCH  16  17
ATOM     17  C   UNL     1     -11.287  10.743  67.527  0.00  0.00    +0.381 C 
ATOM     18  O   UNL     1     -12.155  10.825  68.621  0.00  0.00    -0.244 OA
ATOM     19  O   UNL     1     -10.608   9.672  67.480  0.00  0.00    -0.244 OA
ENDBRANCH  16  17
ENDBRANCH  15  16
BRANCH  15  20
ATOM     20  C   UNL     1     -10.919  13.325  65.179  0.00  0.00    +0.188 C 
BRANCH  20  21
ATOM     21  C   UNL     1     -12.141  13.426  64.319  0.00  0.00    +0.381 C 
ATOM     22  O   UNL     1     -12.595  14.665  63.853  0.00  0.00    -0.244 OA
ATOM     23  O   UNL     1     -12.983  12.481  64.238  0.00  0.00    -0.244 OA
ENDBRANCH  20  21
ENDBRANCH  15  20
ENDBRANCH  14  15
ENDBRANCH  13  14
ENDBRANCH   1  13
BRANCH   1  24
ATOM     24  C   UNL     1      -9.904  16.823  68.309  0.00  0.00    +0.188 C 
BRANCH  24  26
ATOM     25  O   UNL     1     -10.992  18.832  67.505  0.00  0.00    -0.244 OA
ATOM     26  C   UNL     1     -10.218  17.859  67.280  0.00  0.00    +0.381 C 
ATOM     27  O   UNL     1      -9.563  17.902  66.045  0.00  0.00    -0.244 OA
ENDBRANCH  24  26
ENDBRANCH   1  24
TORSDOF 16
ENDMDL
MODEL 5
REMARK VINA RESULT:      -5.7      4.062      6.758
REMARK  Name = 
REMARK  16 active torsions:
REMARK  status: ('A' for Active; 'I' for Inactive)
REMARK    1  A    between atoms: C_2  and  C_4
REMARK    2  A    between atoms: C_4  and  N_5
REMARK    3  A    between atoms: N_5  and  C_6
REMARK    4  A    between atoms: N_5  and  C_17
REMARK    5  A    between atoms: C_6  and  C_7
REMARK    6  A    between atoms: C_7  and  N_8
REMARK    7  A    between atoms: N_8  and  C_9
REMARK    8  A    between atoms: N_8  and  C_13
REMARK    9  A    between atoms: C_9  and  C_10
REMARK   10  A    between atoms: C_13  and  C_14
REMARK   11  A    between atoms: C_17  and  C_18
REMARK   12  A    between atoms: C_18  and  N_19
REMARK   13  A    between atoms: N_19  and  C_20
REMARK   14  A    between atoms: N_19  and  C_24
REMARK   15  A    between atoms: C_20  and  C_21
REMARK   16  A    between atoms: C_24  and  C_25
REMARK                            x       y       z     vdW  Elec       q    Type
REMARK                         _______ _______ _______ _____ _____    ______ ____
ROOT
ATOM      1  N   UNL     1      -8.645  17.799  67.289  0.00  0.00    -0.261 NA
ENDROOT
BRANCH   1   2
ATOM      2  C   UNL     1      -7.491  17.884  68.159  0.00  0.00    +0.090 C 
BRANCH   2   3
ATOM      3  C   UNL     1      -7.526  19.279  68.769  0.00  0.00    +0.091 C 
BRANCH   3   4
ATOM      4  N   UNL     1      -6.158  19.701  68.931  0.00  0.00    -0.252 NA
BRANCH   4   5
ATOM      5  C   UNL     1      -5.368  19.490  67.720  0.00  0.00    +0.188 C 
BRANCH   5   6
ATOM      6  C   UNL     1      -5.187  20.773  66.968  0.00  0.00    +0.381 C 
ATOM      7  O   UNL     1      -6.063  21.825  67.216  0.00  0.00    -0.244 OA
ATOM      8  O   UNL     1      -3.982  21.101  66.749  0.00  0.00    -0.244 OA
ENDBRANCH   5   6
ENDBRANCH   4   5
BRANCH   4   9
ATOM      9  C   UNL     1      -5.490  19.065  70.040  0.00  0.00    +0.188 C 
BRANCH   9  10
ATOM     10  C   UNL     1      -5.050  20.106  71.000  0.00  0.00    +0.381 C 
ATOM     11  O   UNL     1      -4.349  19.779  72.154  0.00  0.00    -0.244 OA
ATOM     12  O   UNL     1      -5.164  21.325  70.677  0.00  0.00    -0.244 OA
ENDBRANCH   9  10
ENDBRANCH   4   9
ENDBRANCH   3   4
ENDBRANCH   2   3
ENDBRANCH   1   2
BRANCH   1  13
ATOM     13  C   UNL     1      -8.645  16.613  66.477  0.00  0.00    +0.090 C 
BRANCH  13  14
ATOM     14  C   UNL     1      -9.389  15.531  67.250  0.00  0.00    +0.091 C 
BRANCH  14  15
ATOM     15  N   UNL     1     -10.585  15.246  66.533  0.00  0.00    -0.252 NA
BRANCH  15  16
ATOM     16  C   UNL     1     -11.583  14.514  67.230  0.00  0.00    +0.188 C 
BRANCH  16  17
ATOM     17  C   UNL     1     -11.341  13.058  67.316  0.00  0.00    +0.381 C 
ATOM     18  O   UNL     1     -12.144  12.241  66.512  0.00  0.00    -0.244 OA
ATOM     19  O   UNL     1     -11.131  12.597  68.480  0.00  0.00    -0.244 OA
ENDBRANCH  16  17
ENDBRANCH  15  16
BRANCH  15  20
ATOM     20  C   UNL     1     -10.423  14.927  65.151  0.00  0.00    +0.188 C 
BRANCH  20  21
ATOM     21  C   UNL     1     -11.605  15.500  64.430  0.00  0.00    +0.381 C 
ATOM     22  O   UNL     1     -12.633  14.676  63.961  0.00  0.00    -0.244 OA
ATOM     23  O   UNL     1     -11.585  16.668  63.936  0.00  0.00    -0.244 OA
ENDBRANCH  20  21
ENDBRANCH  15  20
ENDBRANCH  14  15
ENDBRANCH  13  14
ENDBRANCH   1  13
BRANCH   1  24
ATOM     24  C   UNL     1      -8.861  19.014  66.540  0.00  0.00    +0.188 C 
BRANCH  24  26
ATOM     25  O   UNL     1     -11.090  19.138  67.478  0.00  0.00    -0.244 OA
ATOM     26  C   UNL     1     -10.338  19.217  66.465  0.00  0.00    +0.381 C 
ATOM     27  O   UNL     1     -10.971  19.653  65.296  0.00  0.00    -0.244 OA
ENDBRANCH  24  26
ENDBRANCH   1  24
TORSDOF 16
ENDMDL
MODEL 6
REMARK VINA RESULT:      -5.6      2.170      7.253
REMARK  Name = 
REMARK  16 active torsions:
REMARK  status: ('A' for Active; 'I' for Inactive)
REMARK    1  A    between atoms: C_2  and  C_4
REMARK    2  A    between atoms: C_4  and  N_5
REMARK    3  A    between atoms: N_5  and  C_6
REMARK    4  A    between atoms: N_5  and  C_17
REMARK    5  A    between atoms: C_6  and  C_7
REMARK    6  A    between atoms: C_7  and  N_8
REMARK    7  A    between atoms: N_8  and  C_9
REMARK    8  A    between atoms: N_8  and  C_13
REMARK    9  A    between atoms: C_9  and  C_10
REMARK   10  A    between atoms: C_13  and  C_14
REMARK   11  A    between atoms: C_17  and  C_18
REMARK   12  A    between atoms: C_18  and  N_19
REMARK   13  A    between atoms: N_19  and  C_20
REMARK   14  A    between atoms: N_19  and  C_24
REMARK   15  A    between atoms: C_20  and  C_21
REMARK   16  A    between atoms: C_24  and  C_25
REMARK                            x       y       z     vdW  Elec       q    Type
REMARK                         _______ _______ _______ _____ _____    ______ ____
ROOT
ATOM      1  N   UNL     1     -11.402  15.312  68.630  0.00  0.00    -0.261 NA
ENDROOT
BRANCH   1   2
ATOM      2  C   UNL     1     -10.976  14.246  67.747  0.00  0.00    +0.090 C 
BRANCH   2   3
ATOM      3  C   UNL     1     -12.204  13.863  66.930  0.00  0.00    +0.091 C 
BRANCH   3   4
ATOM      4  N   UNL     1     -11.767  13.701  65.566  0.00  0.00    -0.252 NA
BRANCH   4   5
ATOM      5  C   UNL     1     -11.195  12.378  65.323  0.00  0.00    +0.188 C 
BRANCH   5   6
ATOM      6  C   UNL     1     -11.532  11.893  63.947  0.00  0.00    +0.381 C 
ATOM      7  O   UNL     1     -12.774  12.217  63.407  0.00  0.00    -0.244 OA
ATOM      8  O   UNL     1     -10.564  11.883  63.129  0.00  0.00    -0.244 OA
ENDBRANCH   5   6
ENDBRANCH   4   5
BRANCH   4   9
ATOM      9  C   UNL     1     -10.820  14.704  65.146  0.00  0.00    +0.188 C 
BRANCH   9  10
ATOM     10  C   UNL     1     -11.538  15.765  64.400  0.00  0.00    +0.381 C 
ATOM     11  O   UNL     1     -12.795  15.543  63.850  0.00  0.00    -0.244 OA
ATOM     12  O   UNL     1     -11.075  16.944  64.412  0.00  0.00    -0.244 OA
ENDBRANCH   9  10
ENDBRANCH   4   9
ENDBRANCH   3   4
ENDBRANCH   2   3
ENDBRANCH   1   2
BRANCH   1  13
ATOM     13  C   UNL     1     -10.956  16.607  68.195  0.00  0.00    +0.090 C 
BRANCH  13  14
ATOM     14  C   UNL     1      -9.446  16.532  68.011  0.00  0.00    +0.091 C 
BRANCH  14  15
ATOM     15  N   UNL     1      -8.975  17.863  67.835  0.00  0.00    -0.252 NA
BRANCH  15  16
ATOM     16  C   UNL     1      -7.566  18.047  67.868  0.00  0.00    +0.188 C 
BRANCH  16  17
ATOM     17  C   UNL     1      -6.876  17.801  66.584  0.00  0.00    +0.381 C 
ATOM     18  O   UNL     1      -7.550  18.198  65.424  0.00  0.00    -0.244 OA
ATOM     19  O   UNL     1      -6.274  16.689  66.481  0.00  0.00    -0.244 OA
ENDBRANCH  16  17
ENDBRANCH  15  16
BRANCH  15  20
ATOM     20  C   UNL     1      -9.755  18.888  68.449  0.00  0.00    +0.188 C 
BRANCH  20  21
ATOM     21  C   UNL     1     -10.017  19.925  67.399  0.00  0.00    +0.381 C 
ATOM     22  O   UNL     1     -10.633  19.588  66.189  0.00  0.00    -0.244 OA
ATOM     23  O   UNL     1      -9.430  21.049  67.408  0.00  0.00    -0.244 OA
ENDBRANCH  20  21
ENDBRANCH  15  20
ENDBRANCH  14  15
ENDBRANCH  13  14
ENDBRANCH   1  13
BRANCH   1  24
ATOM     24  C   UNL     1     -11.104  15.031  70.014  0.00  0.00    +0.188 C 
BRANCH  24  26
ATOM     25  O   UNL     1     -12.751  13.582  71.041  0.00  0.00    -0.244 OA
ATOM     26  C   UNL     1     -12.407  14.746  70.686  0.00  0.00    +0.381 C 
ATOM     27  O   UNL     1     -13.270  15.766  71.098  0.00  0.00    -0.244 OA
ENDBRANCH  24  26
ENDBRANCH   1  24
TORSDOF 16
ENDMDL
MODEL 7
REMARK VINA RESULT:      -5.6      0.990      6.463
REMARK  Name = 
REMARK  16 active torsions:
REMARK  status: ('A' for Active; 'I' for Inactive)
REMARK    1  A    between atoms: C_2  and  C_4
REMARK    2  A    between atoms: C_4  and  N_5
REMARK    3  A    between atoms: N_5  and  C_6
REMARK    4  A    between atoms: N_5  and  C_17
REMARK    5  A    between atoms: C_6  and  C_7
REMARK    6  A    between atoms: C_7  and  N_8
REMARK    7  A    between atoms: N_8  and  C_9
REMARK    8  A    between atoms: N_8  and  C_13
REMARK    9  A    between atoms: C_9  and  C_10
REMARK   10  A    between atoms: C_13  and  C_14
REMARK   11  A    between atoms: C_17  and  C_18
REMARK   12  A    between atoms: C_18  and  N_19
REMARK   13  A    between atoms: N_19  and  C_20
REMARK   14  A    between atoms: N_19  and  C_24
REMARK   15  A    between atoms: C_20  and  C_21
REMARK   16  A    between atoms: C_24  and  C_25
REMARK                            x       y       z     vdW  Elec       q    Type
REMARK                         _______ _______ _______ _____ _____    ______ ____
ROOT
ATOM      1  N   UNL     1     -10.619  15.534  68.623  0.00  0.00    -0.261 NA
ENDROOT
BRANCH   1   2
ATOM      2  C   UNL     1      -9.895  14.306  68.369  0.00  0.00    +0.090 C 
BRANCH   2   3
ATOM      3  C   UNL     1     -10.000  14.059  66.870  0.00  0.00    +0.091 C 
BRANCH   3   4
ATOM      4  N   UNL     1     -10.585  12.753  66.700  0.00  0.00    -0.252 NA
BRANCH   4   5
ATOM      5  C   UNL     1     -10.032  11.775  67.634  0.00  0.00    +0.188 C 
BRANCH   5   6
ATOM      6  C   UNL     1     -11.070  10.774  68.040  0.00  0.00    +0.381 C 
ATOM      7  O   UNL     1     -10.698   9.721  68.871  0.00  0.00    -0.244 OA
ATOM      8  O   UNL     1     -12.226  11.253  68.244  0.00  0.00    -0.244 OA
ENDBRANCH   5   6
ENDBRANCH   4   5
BRANCH   4   9
ATOM      9  C   UNL     1     -10.461  12.240  65.359  0.00  0.00    +0.188 C 
BRANCH   9  10
ATOM     10  C   UNL     1     -11.702  12.545  64.607  0.00  0.00    +0.381 C 
ATOM     11  O   UNL     1     -11.703  12.654  63.222  0.00  0.00    -0.244 OA
ATOM     12  O   UNL     1     -12.809  12.533  65.222  0.00  0.00    -0.244 OA
ENDBRANCH   9  10
ENDBRANCH   4   9
ENDBRANCH   3   4
ENDBRANCH   2   3
ENDBRANCH   1   2
BRANCH   1  13
ATOM     13  C   UNL     1     -11.902  15.308  69.232  0.00  0.00    +0.090 C 
BRANCH  13  14
ATOM     14  C   UNL     1     -11.863  15.931  70.622  0.00  0.00    +0.091 C 
BRANCH  14  15
ATOM     15  N   UNL     1     -12.359  14.960  71.535  0.00  0.00    -0.252 NA
BRANCH  15  16
ATOM     16  C   UNL     1     -11.959  15.101  72.891  0.00  0.00    +0.188 C 
BRANCH  16  17
ATOM     17  C   UNL     1     -12.664  16.161  73.641  0.00  0.00    +0.381 C 
ATOM     18  O   UNL     1     -12.450  16.199  75.023  0.00  0.00    -0.244 OA
ATOM     19  O   UNL     1     -13.864  16.384  73.294  0.00  0.00    -0.244 OA
ENDBRANCH  16  17
ENDBRANCH  15  16
BRANCH  15  20
ATOM     20  C   UNL     1     -12.442  13.623  71.041  0.00  0.00    +0.188 C 
BRANCH  20  21
ATOM     21  C   UNL     1     -13.364  12.876  71.955  0.00  0.00    +0.381 C 
ATOM     22  O   UNL     1     -13.269  11.488  72.099  0.00  0.00    -0.244 OA
ATOM     23  O   UNL     1     -14.445  13.386  72.379  0.00  0.00    -0.244 OA
ENDBRANCH  20  21
ENDBRANCH  15  20
ENDBRANCH  14  15
ENDBRANCH  13  14
ENDBRANCH   1  13
BRANCH   1  24
ATOM     24  C   UNL     1     -10.672  16.393  67.464  0.00  0.00    +0.188 C 
BRANCH  24  26
ATOM     25  O   UNL     1      -9.116  17.965  68.450  0.00  0.00    -0.244 OA
ATOM     26  C   UNL     1     -10.240  17.750  67.914  0.00  0.00    +0.381 C 
ATOM     27  O   UNL     1     -10.991  18.897  67.639  0.00  0.00    -0.244 OA
ENDBRANCH  24  26
ENDBRANCH   1  24
TORSDOF 16
ENDMDL
MODEL 8
REMARK VINA RESULT:      -5.5      2.314      5.676
REMARK  Name = 
REMARK  16 active torsions:
REMARK  status: ('A' for Active; 'I' for Inactive)
REMARK    1  A    between atoms: C_2  and  C_4
REMARK    2  A    between atoms: C_4  and  N_5
REMARK    3  A    between atoms: N_5  and  C_6
REMARK    4  A    between atoms: N_5  and  C_17
REMARK    5  A    between atoms: C_6  and  C_7
REMARK    6  A    between atoms: C_7  and  N_8
REMARK    7  A    between atoms: N_8  and  C_9
REMARK    8  A    between atoms: N_8  and  C_13
REMARK    9  A    between atoms: C_9  and  C_10
REMARK   10  A    between atoms: C_13  and  C_14
REMARK   11  A    between atoms: C_17  and  C_18
REMARK   12  A    between atoms: C_18  and  N_19
REMARK   13  A    between atoms: N_19  and  C_20
REMARK   14  A    between atoms: N_19  and  C_24
REMARK   15  A    between atoms: C_20  and  C_21
REMARK   16  A    between atoms: C_24  and  C_25
REMARK                            x       y       z     vdW  Elec       q    Type
REMARK                         _______ _______ _______ _____ _____    ______ ____
ROOT
ATOM      1  N   UNL     1     -10.444  15.192  69.410  0.00  0.00    -0.261 NA
ENDROOT
BRANCH   1   2
ATOM      2  C   UNL     1      -9.320  16.057  69.119  0.00  0.00    +0.090 C 
BRANCH   2   3
ATOM      3  C   UNL     1      -9.914  17.423  68.800  0.00  0.00    +0.091 C 
BRANCH   3   4
ATOM      4  N   UNL     1      -8.854  18.220  68.235  0.00  0.00    -0.252 NA
BRANCH   4   5
ATOM      5  C   UNL     1      -9.100  18.550  66.832  0.00  0.00    +0.188 C 
BRANCH   5   6
ATOM      6  C   UNL     1     -10.155  19.605  66.706  0.00  0.00    +0.381 C 
ATOM      7  O   UNL     1      -9.950  20.836  67.324  0.00  0.00    -0.244 OA
ATOM      8  O   UNL     1     -10.742  19.646  65.583  0.00  0.00    -0.244 OA
ENDBRANCH   5   6
ENDBRANCH   4   5
BRANCH   4   9
ATOM      9  C   UNL     1      -7.554  17.608  68.350  0.00  0.00    +0.188 C 
BRANCH   9  10
ATOM     10  C   UNL     1      -6.628  18.561  69.008  0.00  0.00    +0.381 C 
ATOM     11  O   UNL     1      -5.253  18.362  68.998  0.00  0.00    -0.244 OA
ATOM     12  O   UNL     1      -7.084  19.663  69.436  0.00  0.00    -0.244 OA
ENDBRANCH   9  10
ENDBRANCH   4   9
ENDBRANCH   3   4
ENDBRANCH   2   3
ENDBRANCH   1   2
BRANCH   1  13
ATOM     13  C   UNL     1     -10.530  14.071  68.515  0.00  0.00    +0.090 C 
BRANCH  13  14
ATOM     14  C   UNL     1     -11.518  14.440  67.416  0.00  0.00    +0.091 C 
BRANCH  14  15
ATOM     15  N   UNL     1     -10.941  14.044  66.177  0.00  0.00    -0.252 NA
BRANCH  15  16
ATOM     16  C   UNL     1     -10.196  12.835  66.183  0.00  0.00    +0.188 C 
BRANCH  16  17
ATOM     17  C   UNL     1     -10.989  11.613  65.933  0.00  0.00    +0.381 C 
ATOM     18  O   UNL     1     -11.608  11.030  67.044  0.00  0.00    -0.244 OA
ATOM     19  O   UNL     1     -10.484  10.779  65.122  0.00  0.00    -0.244 OA
ENDBRANCH  16  17
ENDBRANCH  15  16
BRANCH  15  20
ATOM     20  C   UNL     1     -10.423  15.096  65.364  0.00  0.00    +0.188 C 
BRANCH  20  21
ATOM     21  C   UNL     1     -11.557  15.598  64.523  0.00  0.00    +0.381 C 
ATOM     22  O   UNL     1     -12.533  14.725  64.033  0.00  0.00    -0.244 OA
ATOM     23  O   UNL     1     -11.520  16.733  63.960  0.00  0.00    -0.244 OA
ENDBRANCH  20  21
ENDBRANCH  15  20
ENDBRANCH  14  15
ENDBRANCH  13  14
ENDBRANCH   1  13
BRANCH   1  24
ATOM     24  C   UNL     1     -11.681  15.922  69.545  0.00  0.00    +0.188 C 
BRANCH  24  26
ATOM     25  O   UNL     1     -11.501  15.295  71.878  0.00  0.00    -0.244 OA
ATOM     26  C   UNL     1     -12.235  15.584  70.891  0.00  0.00    +0.381 C 
ATOM     27  O   UNL     1     -13.597  15.709  71.186  0.00  0.00    -0.244 OA
ENDBRANCH  24  26
ENDBRANCH   1  24
TORSDOF 16
ENDMDL
MODEL 9
REMARK VINA RESULT:      -5.5      2.461      6.576
REMARK  Name = 
REMARK  16 active torsions:
REMARK  status: ('A' for Active; 'I' for Inactive)
REMARK    1  A    between atoms: C_2  and  C_4
REMARK    2  A    between atoms: C_4  and  N_5
REMARK    3  A    between atoms: N_5  and  C_6
REMARK    4  A    between atoms: N_5  and  C_17
REMARK    5  A    between atoms: C_6  and  C_7
REMARK    6  A    between atoms: C_7  and  N_8
REMARK    7  A    between atoms: N_8  and  C_9
REMARK    8  A    between atoms: N_8  and  C_13
REMARK    9  A    between atoms: C_9  and  C_10
REMARK   10  A    between atoms: C_13  and  C_14
REMARK   11  A    between atoms: C_17  and  C_18
REMARK   12  A    between atoms: C_18  and  N_19
REMARK   13  A    between atoms: N_19  and  C_20
REMARK   14  A    between atoms: N_19  and  C_24
REMARK   15  A    between atoms: C_20  and  C_21
REMARK   16  A    between atoms: C_24  and  C_25
REMARK                            x       y       z     vdW  Elec       q    Type
REMARK                         _______ _______ _______ _____ _____    ______ ____
ROOT
ATOM      1  N   UNL     1     -10.271  15.714  66.304  0.00  0.00    -0.261 NA
ENDROOT
BRANCH   1   2
ATOM      2  C   UNL     1      -9.131  16.536  65.955  0.00  0.00    +0.090 C 
BRANCH   2   3
ATOM      3  C   UNL     1      -8.414  16.837  67.264  0.00  0.00    +0.091 C 
BRANCH   3   4
ATOM      4  N   UNL     1      -8.065  18.235  67.240  0.00  0.00    -0.252 NA
BRANCH   4   5
ATOM      5  C   UNL     1      -6.622  18.446  67.339  0.00  0.00    +0.188 C 
BRANCH   5   6
ATOM      6  C   UNL     1      -6.096  19.134  66.117  0.00  0.00    +0.381 C 
ATOM      7  O   UNL     1      -6.606  18.775  64.873  0.00  0.00    -0.244 OA
ATOM      8  O   UNL     1      -5.829  20.365  66.267  0.00  0.00    -0.244 OA
ENDBRANCH   5   6
ENDBRANCH   4   5
BRANCH   4   9
ATOM      9  C   UNL     1      -8.720  19.007  68.267  0.00  0.00    +0.188 C 
BRANCH   9  10
ATOM     10  C   UNL     1      -9.906  19.679  67.683  0.00  0.00    +0.381 C 
ATOM     11  O   UNL     1     -11.143  19.050  67.627  0.00  0.00    -0.244 OA
ATOM     12  O   UNL     1      -9.830  20.909  67.391  0.00  0.00    -0.244 OA
ENDBRANCH   9  10
ENDBRANCH   4   9
ENDBRANCH   3   4
ENDBRANCH   2   3
ENDBRANCH   1   2
BRANCH   1  13
ATOM     13  C   UNL     1     -10.181  15.173  67.632  0.00  0.00    +0.090 C 
BRANCH  13  14
ATOM     14  C   UNL     1     -11.565  15.276  68.261  0.00  0.00    +0.091 C 
BRANCH  14  15
ATOM     15  N   UNL     1     -11.795  14.068  68.977  0.00  0.00    -0.252 NA
BRANCH  15  16
ATOM     16  C   UNL     1     -12.137  14.200  70.350  0.00  0.00    +0.188 C 
BRANCH  16  17
ATOM     17  C   UNL     1     -12.581  15.551  70.754  0.00  0.00    +0.381 C 
ATOM     18  O   UNL     1     -11.695  16.290  71.545  0.00  0.00    -0.244 OA
ATOM     19  O   UNL     1     -13.797  15.657  71.097  0.00  0.00    -0.244 OA
ENDBRANCH  16  17
ENDBRANCH  15  16
BRANCH  15  20
ATOM     20  C   UNL     1     -10.941  12.973  68.646  0.00  0.00    +0.188 C 
BRANCH  20  21
ATOM     21  C   UNL     1     -11.802  11.924  68.013  0.00  0.00    +0.381 C 
ATOM     22  O   UNL     1     -12.223  10.803  68.737  0.00  0.00    -0.244 OA
ATOM     23  O   UNL     1     -11.923  11.826  66.755  0.00  0.00    -0.244 OA
ENDBRANCH  20  21
ENDBRANCH  15  20
ENDBRANCH  14  15
ENDBRANCH  13  14
ENDBRANCH   1  13
BRANCH   1  24
ATOM     24  C   UNL     1     -10.567  14.726  65.294  0.00  0.00    +0.188 C 
BRANCH  24  26
ATOM     25  O   UNL     1     -12.029  16.101  63.939  0.00  0.00    -0.244 OA
ATOM     26  C   UNL     1     -11.884  15.101  64.698  0.00  0.00    +0.381 C 
ATOM     27  O   UNL     1     -13.015  14.288  64.822  0.00  0.00    -0.244 OA
ENDBRANCH  24  26
ENDBRANCH   1  24
TORSDOF 16
ENDMDL
