MODEL 1
REMARK VINA RESULT:      -7.3      0.000      0.000
REMARK  Name = 
REMARK  2 active torsions:
REMARK  status: ('A' for Active; 'I' for Inactive)
REMARK    1  A    between atoms: C_23  and  C_25
REMARK    2  A    between atoms: C_25  and  C_27
REMARK                            x       y       z     vdW  Elec       q    Type
REMARK                         _______ _______ _______ _____ _____    ______ ____
ROOT
ATOM      1  C   UNL     1      -5.103  18.365  66.909  0.00  0.00    +0.003 C 
ATOM      2  C   UNL     1      -6.423  18.818  66.059  0.00  0.00    +0.035 C 
ATOM      3  C   UNL     1      -7.282  19.306  67.342  0.00  0.00    +0.180 C 
ATOM      4  O   UNL     1      -8.302  20.011  66.662  0.00  0.00    -0.218 OA
ATOM      5  C   UNL     1      -7.955  18.124  67.881  0.00  0.00    +0.035 C 
ATOM      6  C   UNL     1      -8.504  17.693  66.424  0.00  0.00    +0.006 C 
ATOM      7  C   UNL     1      -8.881  16.149  67.002  0.00  0.00    +0.034 C 
ATOM      8  C   UNL     1     -10.311  16.599  67.561  0.00  0.00    +0.168 C 
ATOM      9  C   UNL     1     -10.101  17.271  69.039  0.00  0.00    +0.182 C 
ATOM     10  O   UNL     1      -8.939  16.377  69.431  0.00  0.00    -0.220 OA
ATOM     11  F   UNL     1     -10.927  17.439  66.775  0.00  0.00    -0.237 F 
ATOM     12  C   UNL     1     -10.842  15.304  67.930  0.00  0.00    +0.064 C 
ATOM     13  C   UNL     1     -11.348  14.551  66.732  0.00  0.00    -0.035 C 
ATOM     14  C   UNL     1     -11.644  13.270  66.981  0.00  0.00    +0.034 C 
ATOM     15  C   UNL     1     -11.648  12.843  68.393  0.00  0.00    +0.195 C 
ATOM     16  C   UNL     1     -12.165  13.904  69.275  0.00  0.00    +0.038 C 
ATOM     17  O   UNL     1     -11.279  11.717  68.790  0.00  0.00    -0.287 OA
ATOM     18  C   UNL     1     -10.724  15.075  65.535  0.00  0.00    +0.023 C 
ATOM     19  C   UNL     1      -9.738  14.332  68.382  0.00  0.00    +0.011 C 
ATOM     20  C   UNL     1     -11.888  15.174  68.936  0.00  0.00    -0.017 C 
ATOM     21  C   UNL     1      -9.459  15.728  65.554  0.00  0.00    +0.007 C 
ATOM     22  C   UNL     1      -6.968  17.170  68.380  0.00  0.00    +0.003 C 
ATOM     23  C   UNL     1      -9.138  18.500  68.547  0.00  0.00    +0.038 C 
ATOM     24  C   UNL     1      -6.994  17.284  66.026  0.00  0.00    +0.003 C 
ENDROOT
BRANCH   3  25
ATOM     25  C   UNL     1      -6.601  20.228  68.170  0.00  0.00    +0.211 C 
ATOM     26  O   UNL     1      -6.475  21.378  67.734  0.00  0.00    -0.291 OA
BRANCH  25  27
ATOM     27  C   UNL     1      -6.340  20.217  69.643  0.00  0.00    +0.248 C 
ATOM     28  O   UNL     1      -5.400  21.180  69.973  0.00  0.00    -0.212 OA
ENDBRANCH  25  27
ENDBRANCH   3  25
TORSDOF 2
ENDMDL
MODEL 2
REMARK VINA RESULT:      -7.2      1.522      6.629
REMARK  Name = 
REMARK  2 active torsions:
REMARK  status: ('A' for Active; 'I' for Inactive)
REMARK    1  A    between atoms: C_23  and  C_25
REMARK    2  A    between atoms: C_25  and  C_27
REMARK                            x       y       z     vdW  Elec       q    Type
REMARK                         _______ _______ _______ _____ _____    ______ ____
ROOT
ATOM      1  C   UNL     1     -11.638  14.171  69.983  0.00  0.00    +0.003 C 
ATOM      2  C   UNL     1     -12.186  14.954  68.659  0.00  0.00    +0.035 C 
ATOM      3  C   UNL     1     -11.078  14.351  67.644  0.00  0.00    +0.180 C 
ATOM      4  O   UNL     1     -11.681  14.723  66.420  0.00  0.00    -0.218 OA
ATOM      5  C   UNL     1      -9.896  15.207  67.741  0.00  0.00    +0.035 C 
ATOM      6  C   UNL     1     -10.776  16.550  67.566  0.00  0.00    +0.006 C 
ATOM      7  C   UNL     1      -9.482  17.493  68.111  0.00  0.00    +0.034 C 
ATOM      8  C   UNL     1      -8.805  17.580  66.663  0.00  0.00    +0.168 C 
ATOM      9  C   UNL     1      -7.921  16.224  66.423  0.00  0.00    +0.182 C 
ATOM     10  O   UNL     1      -7.515  16.067  67.877  0.00  0.00    -0.220 OA
ATOM     11  F   UNL     1      -9.675  17.719  65.699  0.00  0.00    -0.237 F 
ATOM     12  C   UNL     1      -7.757  18.536  66.945  0.00  0.00    +0.064 C 
ATOM     13  C   UNL     1      -8.285  19.943  66.981  0.00  0.00    -0.035 C 
ATOM     14  C   UNL     1      -7.411  20.840  67.452  0.00  0.00    +0.034 C 
ATOM     15  C   UNL     1      -6.024  20.383  67.657  0.00  0.00    +0.195 C 
ATOM     16  C   UNL     1      -5.611  19.430  66.610  0.00  0.00    +0.038 C 
ATOM     17  O   UNL     1      -5.284  20.769  68.586  0.00  0.00    -0.287 OA
ATOM     18  C   UNL     1      -9.712  19.916  67.229  0.00  0.00    +0.023 C 
ATOM     19  C   UNL     1      -7.249  18.429  68.394  0.00  0.00    +0.011 C 
ATOM     20  C   UNL     1      -6.551  18.599  66.131  0.00  0.00    -0.017 C 
ATOM     21  C   UNL     1     -10.351  18.839  67.904  0.00  0.00    +0.007 C 
ATOM     22  C   UNL     1      -9.324  15.119  69.082  0.00  0.00    +0.003 C 
ATOM     23  C   UNL     1      -9.166  15.168  66.537  0.00  0.00    +0.038 C 
ATOM     24  C   UNL     1     -11.357  16.311  69.052  0.00  0.00    +0.003 C 
ENDROOT
BRANCH   3  25
ATOM     25  C   UNL     1     -10.988  12.940  67.667  0.00  0.00    +0.211 C 
ATOM     26  O   UNL     1     -11.975  12.314  67.260  0.00  0.00    -0.291 OA
BRANCH  25  27
ATOM     27  C   UNL     1      -9.800  12.032  67.710  0.00  0.00    +0.248 C 
ATOM     28  O   UNL     1      -9.464  11.616  66.432  0.00  0.00    -0.212 OA
ENDBRANCH  25  27
ENDBRANCH   3  25
TORSDOF 2
ENDMDL
MODEL 3
REMARK VINA RESULT:      -7.1      1.791      6.709
REMARK  Name = 
REMARK  2 active torsions:
REMARK  status: ('A' for Active; 'I' for Inactive)
REMARK    1  A    between atoms: C_23  and  C_25
REMARK    2  A    between atoms: C_25  and  C_27
REMARK                            x       y       z     vdW  Elec       q    Type
REMARK                         _______ _______ _______ _____ _____    ______ ____
ROOT
ATOM      1  C   UNL     1      -9.198  12.225  65.863  0.00  0.00    +0.003 C 
ATOM      2  C   UNL     1      -9.265  12.596  67.452  0.00  0.00    +0.035 C 
ATOM      3  C   UNL     1     -10.550  13.574  67.337  0.00  0.00    +0.180 C 
ATOM      4  O   UNL     1     -10.869  13.674  68.711  0.00  0.00    -0.218 OA
ATOM      5  C   UNL     1     -10.048  14.901  66.982  0.00  0.00    +0.035 C 
ATOM      6  C   UNL     1      -8.933  14.861  68.150  0.00  0.00    +0.006 C 
ATOM      7  C   UNL     1      -8.119  16.166  67.444  0.00  0.00    +0.034 C 
ATOM      8  C   UNL     1      -9.038  17.258  68.167  0.00  0.00    +0.168 C 
ATOM      9  C   UNL     1     -10.411  17.439  67.294  0.00  0.00    +0.182 C 
ATOM     10  O   UNL     1      -9.750  17.197  65.949  0.00  0.00    -0.220 OA
ATOM     11  F   UNL     1      -9.334  16.945  69.399  0.00  0.00    -0.237 F 
ATOM     12  C   UNL     1      -8.323  18.459  67.792  0.00  0.00    +0.064 C 
ATOM     13  C   UNL     1      -7.100  18.663  68.641  0.00  0.00    -0.035 C 
ATOM     14  C   UNL     1      -6.285  19.629  68.199  0.00  0.00    +0.034 C 
ATOM     15  C   UNL     1      -6.787  20.481  67.105  0.00  0.00    +0.195 C 
ATOM     16  C   UNL     1      -8.232  20.741  67.244  0.00  0.00    +0.038 C 
ATOM     17  O   UNL     1      -6.076  20.944  66.187  0.00  0.00    -0.287 OA
ATOM     18  C   UNL     1      -6.701  17.399  69.224  0.00  0.00    +0.023 C 
ATOM     19  C   UNL     1      -7.645  18.325  66.416  0.00  0.00    +0.011 C 
ATOM     20  C   UNL     1      -8.987  19.755  67.756  0.00  0.00    -0.017 C 
ATOM     21  C   UNL     1      -7.022  16.146  68.629  0.00  0.00    +0.007 C 
ATOM     22  C   UNL     1      -9.432  14.866  65.659  0.00  0.00    +0.003 C 
ATOM     23  C   UNL     1     -10.932  15.896  67.446  0.00  0.00    +0.038 C 
ATOM     24  C   UNL     1      -8.129  13.763  67.283  0.00  0.00    +0.003 C 
ENDROOT
BRANCH   3  25
ATOM     25  C   UNL     1     -11.659  12.989  66.681  0.00  0.00    +0.211 C 
ATOM     26  O   UNL     1     -12.125  11.962  67.189  0.00  0.00    -0.291 OA
BRANCH  25  27
ATOM     27  C   UNL     1     -12.645  13.565  65.716  0.00  0.00    +0.248 C 
ATOM     28  O   UNL     1     -13.091  12.588  64.842  0.00  0.00    -0.212 OA
ENDBRANCH  25  27
ENDBRANCH   3  25
TORSDOF 2
ENDMDL
MODEL 4
REMARK VINA RESULT:      -7.1      1.748      3.162
REMARK  Name = 
REMARK  2 active torsions:
REMARK  status: ('A' for Active; 'I' for Inactive)
REMARK    1  A    between atoms: C_23  and  C_25
REMARK    2  A    between atoms: C_25  and  C_27
REMARK                            x       y       z     vdW  Elec       q    Type
REMARK                         _______ _______ _______ _____ _____    ______ ____
ROOT
ATOM      1  C   UNL     1     -10.082  20.058  66.114  0.00  0.00    +0.003 C 
ATOM      2  C   UNL     1      -9.937  19.761  67.714  0.00  0.00    +0.035 C 
ATOM      3  C   UNL     1      -8.507  19.008  67.610  0.00  0.00    +0.180 C 
ATOM      4  O   UNL     1      -8.162  19.011  68.982  0.00  0.00    -0.218 OA
ATOM      5  C   UNL     1      -8.783  17.604  67.308  0.00  0.00    +0.035 C 
ATOM      6  C   UNL     1      -9.877  17.498  68.492  0.00  0.00    +0.006 C 
ATOM      7  C   UNL     1     -10.467  16.051  67.842  0.00  0.00    +0.034 C 
ATOM      8  C   UNL     1      -9.370  15.154  68.586  0.00  0.00    +0.168 C 
ATOM      9  C   UNL     1      -7.995  15.175  67.698  0.00  0.00    +0.182 C 
ATOM     10  O   UNL     1      -8.701  15.256  66.357  0.00  0.00    -0.220 OA
ATOM     11  F   UNL     1      -9.118  15.556  69.802  0.00  0.00    -0.237 F 
ATOM     12  C   UNL     1      -9.877  13.838  68.263  0.00  0.00    +0.064 C 
ATOM     13  C   UNL     1     -11.039  13.462  69.138  0.00  0.00    -0.035 C 
ATOM     14  C   UNL     1     -11.684  12.358  68.741  0.00  0.00    +0.034 C 
ATOM     15  C   UNL     1     -11.057  11.564  67.668  0.00  0.00    +0.195 C 
ATOM     16  C   UNL     1      -9.589  11.555  67.792  0.00  0.00    +0.038 C 
ATOM     17  O   UNL     1     -11.690  10.957  66.778  0.00  0.00    -0.287 OA
ATOM     18  C   UNL     1     -11.639  14.661  69.686  0.00  0.00    +0.023 C 
ATOM     19  C   UNL     1     -10.582  13.808  66.895  0.00  0.00    +0.011 C 
ATOM     20  C   UNL     1      -9.005  12.671  68.259  0.00  0.00    -0.017 C 
ATOM     21  C   UNL     1     -11.539  15.928  69.044  0.00  0.00    +0.007 C 
ATOM     22  C   UNL     1      -9.410  17.489  65.994  0.00  0.00    +0.003 C 
ATOM     23  C   UNL     1      -7.740  16.788  67.790  0.00  0.00    +0.038 C 
ATOM     24  C   UNL     1     -10.863  18.415  67.602  0.00  0.00    +0.003 C 
ENDROOT
BRANCH   3  25
ATOM     25  C   UNL     1      -7.520  19.747  66.918  0.00  0.00    +0.211 C 
ATOM     26  O   UNL     1      -7.259  20.873  67.358  0.00  0.00    -0.291 OA
BRANCH  25  27
ATOM     27  C   UNL     1      -6.432  19.305  65.991  0.00  0.00    +0.248 C 
ATOM     28  O   UNL     1      -6.802  19.525  64.674  0.00  0.00    -0.212 OA
ENDBRANCH  25  27
ENDBRANCH   3  25
TORSDOF 2
ENDMDL
MODEL 5
REMARK VINA RESULT:      -7.1      1.842      3.188
REMARK  Name = 
REMARK  2 active torsions:
REMARK  status: ('A' for Active; 'I' for Inactive)
REMARK    1  A    between atoms: C_23  and  C_25
REMARK    2  A    between atoms: C_25  and  C_27
REMARK                            x       y       z     vdW  Elec       q    Type
REMARK                         _______ _______ _______ _____ _____    ______ ____
ROOT
ATOM      1  C   UNL     1      -9.512  20.692  67.461  0.00  0.00    +0.003 C 
ATOM      2  C   UNL     1      -9.172  19.721  68.729  0.00  0.00    +0.035 C 
ATOM      3  C   UNL     1      -7.972  18.915  68.000  0.00  0.00    +0.180 C 
ATOM      4  O   UNL     1      -7.413  18.286  69.137  0.00  0.00    -0.218 OA
ATOM      5  C   UNL     1      -8.586  17.823  67.246  0.00  0.00    +0.035 C 
ATOM      6  C   UNL     1      -9.467  17.355  68.516  0.00  0.00    +0.006 C 
ATOM      7  C   UNL     1     -10.450  16.413  67.512  0.00  0.00    +0.034 C 
ATOM      8  C   UNL     1      -9.461  15.155  67.558  0.00  0.00    +0.168 C 
ATOM      9  C   UNL     1      -8.279  15.385  66.449  0.00  0.00    +0.182 C 
ATOM     10  O   UNL     1      -9.164  16.120  65.459  0.00  0.00    -0.220 OA
ATOM     11  F   UNL     1      -8.932  14.962  68.736  0.00  0.00    -0.237 F 
ATOM     12  C   UNL     1     -10.283  14.179  66.875  0.00  0.00    +0.064 C 
ATOM     13  C   UNL     1     -11.337  13.611  67.782  0.00  0.00    -0.035 C 
ATOM     14  C   UNL     1     -12.259  12.874  67.150  0.00  0.00    +0.034 C 
ATOM     15  C   UNL     1     -12.001  12.546  65.735  0.00  0.00    +0.195 C 
ATOM     16  C   UNL     1     -10.568  12.303  65.491  0.00  0.00    +0.038 C 
ATOM     17  O   UNL     1     -12.887  12.464  64.858  0.00  0.00    -0.287 OA
ATOM     18  C   UNL     1     -11.570  14.524  68.883  0.00  0.00    +0.023 C 
ATOM     19  C   UNL     1     -11.193  14.827  65.817  0.00  0.00    +0.011 C 
ATOM     20  C   UNL     1      -9.691  13.029  66.205  0.00  0.00    -0.017 C 
ATOM     21  C   UNL     1     -11.310  15.920  68.787  0.00  0.00    +0.007 C 
ATOM     22  C   UNL     1      -9.431  18.361  66.183  0.00  0.00    +0.003 C 
ATOM     23  C   UNL     1      -7.675  16.757  67.104  0.00  0.00    +0.038 C 
ATOM     24  C   UNL     1     -10.369  18.680  68.322  0.00  0.00    +0.003 C 
ENDROOT
BRANCH   3  25
ATOM     25  C   UNL     1      -6.978  19.751  67.440  0.00  0.00    +0.211 C 
ATOM     26  O   UNL     1      -6.360  20.481  68.224  0.00  0.00    -0.291 OA
BRANCH  25  27
ATOM     27  C   UNL     1      -6.235  19.661  66.145  0.00  0.00    +0.248 C 
ATOM     28  O   UNL     1      -6.456  20.796  65.383  0.00  0.00    -0.212 OA
ENDBRANCH  25  27
ENDBRANCH   3  25
TORSDOF 2
ENDMDL
MODEL 6
REMARK VINA RESULT:      -6.9      2.165      6.854
REMARK  Name = 
REMARK  2 active torsions:
REMARK  status: ('A' for Active; 'I' for Inactive)
REMARK    1  A    between atoms: C_23  and  C_25
REMARK    2  A    between atoms: C_25  and  C_27
REMARK                            x       y       z     vdW  Elec       q    Type
REMARK                         _______ _______ _______ _____ _____    ______ ____
ROOT
ATOM      1  C   UNL     1      -8.940  13.993  67.640  0.00  0.00    +0.003 C 
ATOM      2  C   UNL     1      -9.521  15.188  68.590  0.00  0.00    +0.035 C 
ATOM      3  C   UNL     1      -9.985  16.151  67.375  0.00  0.00    +0.180 C 
ATOM      4  O   UNL     1     -10.789  17.053  68.109  0.00  0.00    -0.218 OA
ATOM      5  C   UNL     1      -8.817  16.941  66.984  0.00  0.00    +0.035 C 
ATOM      6  C   UNL     1      -8.505  17.354  68.515  0.00  0.00    +0.006 C 
ATOM      7  C   UNL     1      -6.956  17.874  68.078  0.00  0.00    +0.034 C 
ATOM      8  C   UNL     1      -7.459  19.329  67.642  0.00  0.00    +0.168 C 
ATOM      9  C   UNL     1      -8.031  19.241  66.111  0.00  0.00    +0.182 C 
ATOM     10  O   UNL     1      -7.046  18.178  65.659  0.00  0.00    -0.220 OA
ATOM     11  F   UNL     1      -8.379  19.811  68.432  0.00  0.00    -0.237 F 
ATOM     12  C   UNL     1      -6.180  19.966  67.413  0.00  0.00    +0.064 C 
ATOM     13  C   UNL     1      -5.529  20.381  68.703  0.00  0.00    -0.035 C 
ATOM     14  C   UNL     1      -4.256  20.772  68.569  0.00  0.00    +0.034 C 
ATOM     15  C   UNL     1      -3.750  20.949  67.195  0.00  0.00    +0.195 C 
ATOM     16  C   UNL     1      -4.788  21.499  66.305  0.00  0.00    +0.038 C 
ATOM     17  O   UNL     1      -2.583  20.686  66.834  0.00  0.00    -0.287 OA
ATOM     18  C   UNL     1      -6.083  19.605  69.794  0.00  0.00    +0.023 C 
ATOM     19  C   UNL     1      -5.118  18.971  66.913  0.00  0.00    +0.011 C 
ATOM     20  C   UNL     1      -6.056  21.119  66.531  0.00  0.00    -0.017 C 
ATOM     21  C   UNL     1      -6.656  18.316  69.603  0.00  0.00    +0.007 C 
ATOM     22  C   UNL     1      -7.778  16.066  66.448  0.00  0.00    +0.003 C 
ATOM     23  C   UNL     1      -9.225  18.166  66.421  0.00  0.00    +0.038 C 
ATOM     24  C   UNL     1      -8.029  15.835  68.780  0.00  0.00    +0.003 C 
ENDROOT
BRANCH   3  25
ATOM     25  C   UNL     1     -10.814  15.514  66.423  0.00  0.00    +0.211 C 
ATOM     26  O   UNL     1     -11.944  15.184  66.804  0.00  0.00    -0.291 OA
BRANCH  25  27
ATOM     27  C   UNL     1     -10.764  15.502  64.928  0.00  0.00    +0.248 C 
ATOM     28  O   UNL     1     -11.310  16.668  64.418  0.00  0.00    -0.212 OA
ENDBRANCH  25  27
ENDBRANCH   3  25
TORSDOF 2
ENDMDL
MODEL 7
REMARK VINA RESULT:      -6.7      2.048      3.228
REMARK  Name = 
REMARK  2 active torsions:
REMARK  status: ('A' for Active; 'I' for Inactive)
REMARK    1  A    between atoms: C_23  and  C_25
REMARK    2  A    between atoms: C_25  and  C_27
REMARK                            x       y       z     vdW  Elec       q    Type
REMARK                         _______ _______ _______ _____ _____    ______ ____
ROOT
ATOM      1  C   UNL     1      -4.034  21.047  66.635  0.00  0.00    +0.003 C 
ATOM      2  C   UNL     1      -5.348  21.480  67.503  0.00  0.00    +0.035 C 
ATOM      3  C   UNL     1      -5.153  20.364  68.659  0.00  0.00    +0.180 C 
ATOM      4  O   UNL     1      -6.058  20.883  69.614  0.00  0.00    -0.218 OA
ATOM      5  C   UNL     1      -5.792  19.137  68.182  0.00  0.00    +0.035 C 
ATOM      6  C   UNL     1      -7.145  19.923  67.778  0.00  0.00    +0.006 C 
ATOM      7  C   UNL     1      -7.660  18.600  66.858  0.00  0.00    +0.034 C 
ATOM      8  C   UNL     1      -8.306  17.850  68.116  0.00  0.00    +0.168 C 
ATOM      9  C   UNL     1      -7.119  17.041  68.901  0.00  0.00    +0.182 C 
ATOM     10  O   UNL     1      -6.324  16.717  67.649  0.00  0.00    -0.220 OA
ATOM     11  F   UNL     1      -8.910  18.661  68.941  0.00  0.00    -0.237 F 
ATOM     12  C   UNL     1      -8.966  16.759  67.432  0.00  0.00    +0.064 C 
ATOM     13  C   UNL     1     -10.258  17.200  66.804  0.00  0.00    -0.035 C 
ATOM     14  C   UNL     1     -10.797  16.296  65.977  0.00  0.00    +0.034 C 
ATOM     15  C   UNL     1     -10.191  14.951  65.965  0.00  0.00    +0.195 C 
ATOM     16  C   UNL     1      -9.749  14.548  67.312  0.00  0.00    +0.038 C 
ATOM     17  O   UNL     1     -10.084  14.235  64.947  0.00  0.00    -0.287 OA
ATOM     18  C   UNL     1     -10.238  18.636  66.616  0.00  0.00    +0.023 C 
ATOM     19  C   UNL     1      -8.210  16.330  66.161  0.00  0.00    +0.011 C 
ATOM     20  C   UNL     1      -9.277  15.513  68.119  0.00  0.00    -0.017 C 
ATOM     21  C   UNL     1      -9.027  19.373  66.481  0.00  0.00    +0.007 C 
ATOM     22  C   UNL     1      -5.095  18.637  67.000  0.00  0.00    +0.003 C 
ATOM     23  C   UNL     1      -6.216  18.353  69.274  0.00  0.00    +0.038 C 
ATOM     24  C   UNL     1      -6.337  20.589  66.550  0.00  0.00    +0.003 C 
ENDROOT
BRANCH   3  25
ATOM     25  C   UNL     1      -3.866  20.363  69.244  0.00  0.00    +0.211 C 
ATOM     26  O   UNL     1      -3.635  21.246  70.079  0.00  0.00    -0.291 OA
BRANCH  25  27
ATOM     27  C   UNL     1      -2.842  19.280  69.363  0.00  0.00    +0.248 C 
ATOM     28  O   UNL     1      -2.947  18.649  70.592  0.00  0.00    -0.212 OA
ENDBRANCH  25  27
ENDBRANCH   3  25
TORSDOF 2
ENDMDL
MODEL 8
REMARK VINA RESULT:      -6.7      1.492      1.774
REMARK  Name = 
REMARK  2 active torsions:
REMARK  status: ('A' for Active; 'I' for Inactive)
REMARK    1  A    between atoms: C_23  and  C_25
REMARK    2  A    between atoms: C_25  and  C_27
REMARK                            x       y       z     vdW  Elec       q    Type
REMARK                         _______ _______ _______ _____ _____    ______ ____
ROOT
ATOM      1  C   UNL     1      -5.467  18.122  66.789  0.00  0.00    +0.003 C 
ATOM      2  C   UNL     1      -6.979  18.740  66.767  0.00  0.00    +0.035 C 
ATOM      3  C   UNL     1      -7.373  18.260  68.262  0.00  0.00    +0.180 C 
ATOM      4  O   UNL     1      -8.541  19.038  68.438  0.00  0.00    -0.218 OA
ATOM      5  C   UNL     1      -7.864  16.886  68.155  0.00  0.00    +0.035 C 
ATOM      6  C   UNL     1      -8.858  17.268  66.940  0.00  0.00    +0.006 C 
ATOM      7  C   UNL     1      -9.064  15.631  66.569  0.00  0.00    +0.034 C 
ATOM      8  C   UNL     1     -10.231  15.431  67.645  0.00  0.00    +0.168 C 
ATOM      9  C   UNL     1      -9.545  15.173  69.109  0.00  0.00    +0.182 C 
ATOM     10  O   UNL     1      -8.339  14.430  68.565  0.00  0.00    -0.220 OA
ATOM     11  F   UNL     1     -11.048  16.447  67.711  0.00  0.00    -0.237 F 
ATOM     12  C   UNL     1     -10.645  14.087  67.304  0.00  0.00    +0.064 C 
ATOM     13  C   UNL     1     -11.522  14.071  66.084  0.00  0.00    -0.035 C 
ATOM     14  C   UNL     1     -11.751  12.846  65.595  0.00  0.00    +0.034 C 
ATOM     15  C   UNL     1     -11.313  11.702  66.417  0.00  0.00    +0.195 C 
ATOM     16  C   UNL     1     -11.499  11.969  67.855  0.00  0.00    +0.038 C 
ATOM     17  O   UNL     1     -10.860  10.633  65.954  0.00  0.00    -0.287 OA
ATOM     18  C   UNL     1     -11.302  15.278  65.315  0.00  0.00    +0.023 C 
ATOM     19  C   UNL     1      -9.475  13.237  66.775  0.00  0.00    +0.011 C 
ATOM     20  C   UNL     1     -11.317  13.233  68.273  0.00  0.00    -0.017 C 
ATOM     21  C   UNL     1     -10.084  16.012  65.375  0.00  0.00    +0.007 C 
ATOM     22  C   UNL     1      -6.790  16.005  67.704  0.00  0.00    +0.003 C 
ATOM     23  C   UNL     1      -8.764  16.608  69.203  0.00  0.00    +0.038 C 
ATOM     24  C   UNL     1      -7.564  17.424  65.989  0.00  0.00    +0.003 C 
ENDROOT
BRANCH   3  25
ATOM     25  C   UNL     1      -6.444  18.652  69.254  0.00  0.00    +0.211 C 
ATOM     26  O   UNL     1      -6.488  19.832  69.620  0.00  0.00    -0.291 OA
BRANCH  25  27
ATOM     27  C   UNL     1      -5.670  17.845  70.248  0.00  0.00    +0.248 C 
ATOM     28  O   UNL     1      -5.221  18.653  71.279  0.00  0.00    -0.212 OA
ENDBRANCH  25  27
ENDBRANCH   3  25
TORSDOF 2
ENDMDL
MODEL 9
REMARK VINA RESULT:      -6.6      2.024      3.383
REMARK  Name = 
REMARK  2 active torsions:
REMARK  status: ('A' for Active; 'I' for Inactive)
REMARK    1  A    between atoms: C_23  and  C_25
REMARK    2  A    between atoms: C_25  and  C_27
REMARK                            x       y       z     vdW  Elec       q    Type
REMARK                         _______ _______ _______ _____ _____    ______ ____
ROOT
ATOM      1  C   UNL     1      -8.103  18.920  68.909  0.00  0.00    +0.003 C 
ATOM      2  C   UNL     1      -7.334  17.962  67.833  0.00  0.00    +0.035 C 
ATOM      3  C   UNL     1      -8.584  17.825  66.814  0.00  0.00    +0.180 C 
ATOM      4  O   UNL     1      -7.898  17.284  65.702  0.00  0.00    -0.218 OA
ATOM      5  C   UNL     1      -9.415  16.724  67.301  0.00  0.00    +0.035 C 
ATOM      6  C   UNL     1      -8.140  15.742  67.445  0.00  0.00    +0.006 C 
ATOM      7  C   UNL     1      -9.046  14.674  68.394  0.00  0.00    +0.034 C 
ATOM      8  C   UNL     1      -9.663  13.915  67.127  0.00  0.00    +0.168 C 
ATOM      9  C   UNL     1     -10.948  14.772  66.586  0.00  0.00    +0.182 C 
ATOM     10  O   UNL     1     -11.375  15.257  67.959  0.00  0.00    -0.220 OA
ATOM     11  F   UNL     1      -8.802  13.748  66.160  0.00  0.00    -0.237 F 
ATOM     12  C   UNL     1     -10.333  12.825  67.803  0.00  0.00    +0.064 C 
ATOM     13  C   UNL     1      -9.368  11.746  68.206  0.00  0.00    -0.035 C 
ATOM     14  C   UNL     1      -9.893  10.825  69.023  0.00  0.00    +0.034 C 
ATOM     15  C   UNL     1     -11.352  10.867  69.234  0.00  0.00    +0.195 C 
ATOM     16  C   UNL     1     -12.063  11.249  68.000  0.00  0.00    +0.038 C 
ATOM     17  O   UNL     1     -11.917  10.594  70.314  0.00  0.00    -0.287 OA
ATOM     18  C   UNL     1      -8.030  12.295  68.272  0.00  0.00    +0.023 C 
ATOM     19  C   UNL     1     -10.840  13.233  69.198  0.00  0.00    +0.011 C 
ATOM     20  C   UNL     1     -11.455  12.129  67.188  0.00  0.00    -0.017 C 
ATOM     21  C   UNL     1      -7.780  13.676  68.510  0.00  0.00    +0.007 C 
ATOM     22  C   UNL     1      -9.977  17.059  68.606  0.00  0.00    +0.003 C 
ATOM     23  C   UNL     1     -10.123  16.139  66.232  0.00  0.00    +0.038 C 
ATOM     24  C   UNL     1      -7.663  16.620  68.712  0.00  0.00    +0.003 C 
ENDROOT
BRANCH   3  25
ATOM     25  C   UNL     1      -9.137  19.065  66.416  0.00  0.00    +0.211 C 
ATOM     26  O   UNL     1      -8.361  19.878  65.900  0.00  0.00    -0.291 OA
BRANCH  25  27
ATOM     27  C   UNL     1     -10.549  19.461  66.122  0.00  0.00    +0.248 C 
ATOM     28  O   UNL     1     -11.206  19.805  67.292  0.00  0.00    -0.212 OA
ENDBRANCH  25  27
ENDBRANCH   3  25
TORSDOF 2
ENDMDL
