MODEL 1
REMARK VINA RESULT:      -5.7      0.000      0.000
REMARK  Name = 
REMARK  3 active torsions:
REMARK  status: ('A' for Active; 'I' for Inactive)
REMARK    1  A    between atoms: C_2  and  C_4
REMARK    2  A    between atoms: C_2  and  C_13
REMARK    3  A    between atoms: C_4  and  C_5
REMARK                            x       y       z     vdW  Elec       q    Type
REMARK                         _______ _______ _______ _____ _____    ______ ____
ROOT
ATOM      1  C   UNL     1     -11.747  14.100  69.947  0.00  0.00    -0.017 A 
ATOM      2  C   UNL     1     -11.744  14.849  68.775  0.00  0.00    +0.041 A 
ATOM      3  C   UNL     1     -11.806  14.208  67.544  0.00  0.00    +0.234 A 
ATOM      4  O   UNL     1     -11.492  14.894  66.370  0.00  0.00    -0.283 OA
ATOM      5  C   UNL     1     -11.965  12.833  67.441  0.00  0.00    +0.234 A 
ATOM      6  O   UNL     1     -12.146  12.215  66.203  0.00  0.00    -0.283 OA
ATOM      7  C   UNL     1     -11.831  12.088  68.586  0.00  0.00    +0.045 A 
ATOM      8  C   UNL     1     -11.717  12.725  69.790  0.00  0.00    -0.001 A 
ENDROOT
BRANCH   1   9
ATOM      9  C   UNL     1     -11.643  14.705  71.289  0.00  0.00    +0.055 C 
BRANCH   9  11
ATOM     10  C   UNL     1     -13.459  13.332  72.186  0.00  0.00    +0.031 C 
ATOM     11  C   UNL     1     -13.017  14.747  71.941  0.00  0.00    +0.174 C 
ATOM     12  N   UNL     1     -13.972  15.487  71.127  0.00  0.00    -0.123 NA
BRANCH  11  13
ATOM     13  C   UNL     1     -12.940  15.455  73.248  0.00  0.00    +0.380 C 
ATOM     14  O   UNL     1     -12.342  14.860  74.364  0.00  0.00    -0.244 OA
ATOM     15  O   UNL     1     -13.784  16.361  73.528  0.00  0.00    -0.244 OA
ENDBRANCH  11  13
ENDBRANCH   9  11
ENDBRANCH   1   9
TORSDOF 3
ENDMDL
MODEL 2
REMARK VINA RESULT:      -5.5      4.676      5.397
REMARK  Name = 
REMARK  3 active torsions:
REMARK  status: ('A' for Active; 'I' for Inactive)
REMARK    1  A    between atoms: C_2  and  C_4
REMARK    2  A    between atoms: C_2  and  C_13
REMARK    3  A    between atoms: C_4  and  C_5
REMARK                            x       y       z     vdW  Elec       q    Type
REMARK                         _______ _______ _______ _____ _____    ______ ____
ROOT
ATOM      1  C   UNL     1     -10.261  14.911  65.920  0.00  0.00    -0.017 A 
ATOM      2  C   UNL     1     -10.498  13.686  66.534  0.00  0.00    +0.041 A 
ATOM      3  C   UNL     1     -11.546  12.886  66.096  0.00  0.00    +0.234 A 
ATOM      4  O   UNL     1     -12.000  11.822  66.878  0.00  0.00    -0.283 OA
ATOM      5  C   UNL     1     -12.318  13.226  64.995  0.00  0.00    +0.234 A 
ATOM      6  O   UNL     1     -13.289  12.357  64.493  0.00  0.00    -0.283 OA
ATOM      7  C   UNL     1     -12.172  14.489  64.479  0.00  0.00    +0.045 A 
ATOM      8  C   UNL     1     -11.172  15.294  64.951  0.00  0.00    -0.001 A 
ENDROOT
BRANCH   1   9
ATOM      9  C   UNL     1      -9.194  15.835  66.353  0.00  0.00    +0.055 C 
BRANCH   9  11
ATOM     10  C   UNL     1      -8.618  16.746  68.548  0.00  0.00    +0.031 C 
ATOM     11  C   UNL     1      -9.694  16.696  67.503  0.00  0.00    +0.174 C 
ATOM     12  N   UNL     1     -10.954  16.196  68.036  0.00  0.00    -0.123 NA
BRANCH  11  13
ATOM     13  C   UNL     1      -9.960  18.080  67.026  0.00  0.00    +0.380 C 
ATOM     14  O   UNL     1     -10.979  18.860  67.583  0.00  0.00    -0.244 OA
ATOM     15  O   UNL     1      -9.626  18.420  65.848  0.00  0.00    -0.244 OA
ENDBRANCH  11  13
ENDBRANCH   9  11
ENDBRANCH   1   9
TORSDOF 3
ENDMDL
MODEL 3
REMARK VINA RESULT:      -5.5      4.974      5.538
REMARK  Name = 
REMARK  3 active torsions:
REMARK  status: ('A' for Active; 'I' for Inactive)
REMARK    1  A    between atoms: C_2  and  C_4
REMARK    2  A    between atoms: C_2  and  C_13
REMARK    3  A    between atoms: C_4  and  C_5
REMARK                            x       y       z     vdW  Elec       q    Type
REMARK                         _______ _______ _______ _____ _____    ______ ____
ROOT
ATOM      1  C   UNL     1      -9.857  15.493  65.966  0.00  0.00    -0.017 A 
ATOM      2  C   UNL     1     -10.921  15.621  65.079  0.00  0.00    +0.041 A 
ATOM      3  C   UNL     1     -11.745  14.532  64.826  0.00  0.00    +0.234 A 
ATOM      4  O   UNL     1     -12.607  14.534  63.728  0.00  0.00    -0.283 OA
ATOM      5  C   UNL     1     -11.602  13.330  65.506  0.00  0.00    +0.234 A 
ATOM      6  O   UNL     1     -12.510  12.284  65.330  0.00  0.00    -0.283 OA
ATOM      7  C   UNL     1     -10.477  13.163  66.274  0.00  0.00    +0.045 A 
ATOM      8  C   UNL     1      -9.640  14.225  66.476  0.00  0.00    -0.001 A 
ENDROOT
BRANCH   1   9
ATOM      9  C   UNL     1      -8.914  16.590  66.256  0.00  0.00    +0.055 C 
BRANCH   9  11
ATOM     10  C   UNL     1      -8.311  17.997  68.164  0.00  0.00    +0.031 C 
ATOM     11  C   UNL     1      -9.470  17.464  67.370  0.00  0.00    +0.174 C 
ATOM     12  N   UNL     1     -10.414  16.732  68.202  0.00  0.00    -0.123 NA
BRANCH  11  13
ATOM     13  C   UNL     1     -10.220  18.612  66.792  0.00  0.00    +0.380 C 
ATOM     14  O   UNL     1      -9.693  19.372  65.742  0.00  0.00    -0.244 OA
ATOM     15  O   UNL     1     -11.088  19.220  67.492  0.00  0.00    -0.244 OA
ENDBRANCH  11  13
ENDBRANCH   9  11
ENDBRANCH   1   9
TORSDOF 3
ENDMDL
MODEL 4
REMARK VINA RESULT:      -5.5      1.798      5.641
REMARK  Name = 
REMARK  3 active torsions:
REMARK  status: ('A' for Active; 'I' for Inactive)
REMARK    1  A    between atoms: C_2  and  C_4
REMARK    2  A    between atoms: C_2  and  C_13
REMARK    3  A    between atoms: C_4  and  C_5
REMARK                            x       y       z     vdW  Elec       q    Type
REMARK                         _______ _______ _______ _____ _____    ______ ____
ROOT
ATOM      1  C   UNL     1     -11.516  13.897  69.844  0.00  0.00    -0.017 A 
ATOM      2  C   UNL     1     -12.478  13.234  70.597  0.00  0.00    +0.041 A 
ATOM      3  C   UNL     1     -13.238  13.939  71.523  0.00  0.00    +0.234 A 
ATOM      4  O   UNL     1     -13.973  13.265  72.499  0.00  0.00    -0.283 OA
ATOM      5  C   UNL     1     -13.135  15.316  71.658  0.00  0.00    +0.234 A 
ATOM      6  O   UNL     1     -13.987  16.028  72.505  0.00  0.00    -0.283 OA
ATOM      7  C   UNL     1     -12.098  15.945  71.016  0.00  0.00    +0.045 A 
ATOM      8  C   UNL     1     -11.319  15.233  70.147  0.00  0.00    -0.001 A 
ENDROOT
BRANCH   1   9
ATOM      9  C   UNL     1     -10.643  13.212  68.871  0.00  0.00    +0.055 C 
BRANCH   9  11
ATOM     10  C   UNL     1      -9.941  13.955  66.649  0.00  0.00    +0.031 C 
ATOM     11  C   UNL     1     -11.122  13.501  67.457  0.00  0.00    +0.174 C 
ATOM     12  N   UNL     1     -12.202  14.479  67.448  0.00  0.00    -0.123 NA
BRANCH  11  13
ATOM     13  C   UNL     1     -11.673  12.263  66.841  0.00  0.00    +0.380 C 
ATOM     14  O   UNL     1     -12.387  12.302  65.639  0.00  0.00    -0.244 OA
ATOM     15  O   UNL     1     -11.929  11.253  67.568  0.00  0.00    -0.244 OA
ENDBRANCH  11  13
ENDBRANCH   9  11
ENDBRANCH   1   9
TORSDOF 3
ENDMDL
MODEL 5
REMARK VINA RESULT:      -5.2      5.153      5.805
REMARK  Name = 
REMARK  3 active torsions:
REMARK  status: ('A' for Active; 'I' for Inactive)
REMARK    1  A    between atoms: C_2  and  C_4
REMARK    2  A    between atoms: C_2  and  C_13
REMARK    3  A    between atoms: C_4  and  C_5
REMARK                            x       y       z     vdW  Elec       q    Type
REMARK                         _______ _______ _______ _____ _____    ______ ____
ROOT
ATOM      1  C   UNL     1     -10.575  14.476  66.162  0.00  0.00    -0.017 A 
ATOM      2  C   UNL     1     -10.007  13.793  65.092  0.00  0.00    +0.041 A 
ATOM      3  C   UNL     1     -10.807  13.014  64.266  0.00  0.00    +0.234 A 
ATOM      4  O   UNL     1     -10.236  12.083  63.397  0.00  0.00    -0.283 OA
ATOM      5  C   UNL     1     -12.186  12.965  64.415  0.00  0.00    +0.234 A 
ATOM      6  O   UNL     1     -12.991  12.275  63.506  0.00  0.00    -0.283 OA
ATOM      7  C   UNL     1     -12.726  13.527  65.545  0.00  0.00    +0.045 A 
ATOM      8  C   UNL     1     -11.922  14.248  66.384  0.00  0.00    -0.001 A 
ENDROOT
BRANCH   1   9
ATOM      9  C   UNL     1      -9.786  15.291  67.107  0.00  0.00    +0.055 C 
BRANCH   9  11
ATOM     10  C   UNL     1     -10.540  17.542  67.697  0.00  0.00    +0.031 C 
ATOM     11  C   UNL     1      -9.796  16.746  66.663  0.00  0.00    +0.174 C 
ATOM     12  N   UNL     1     -10.374  16.895  65.335  0.00  0.00    -0.123 NA
BRANCH  11  13
ATOM     13  C   UNL     1      -8.403  17.262  66.576  0.00  0.00    +0.380 C 
ATOM     14  O   UNL     1      -7.566  17.292  67.697  0.00  0.00    -0.244 OA
ATOM     15  O   UNL     1      -8.090  18.093  65.668  0.00  0.00    -0.244 OA
ENDBRANCH  11  13
ENDBRANCH   9  11
ENDBRANCH   1   9
TORSDOF 3
ENDMDL
MODEL 6
REMARK VINA RESULT:      -5.2      5.713      8.013
REMARK  Name = 
REMARK  3 active torsions:
REMARK  status: ('A' for Active; 'I' for Inactive)
REMARK    1  A    between atoms: C_2  and  C_4
REMARK    2  A    between atoms: C_2  and  C_13
REMARK    3  A    between atoms: C_4  and  C_5
REMARK                            x       y       z     vdW  Elec       q    Type
REMARK                         _______ _______ _______ _____ _____    ______ ____
ROOT
ATOM      1  C   UNL     1      -9.068  18.861  66.885  0.00  0.00    -0.017 A 
ATOM      2  C   UNL     1      -8.129  19.547  66.123  0.00  0.00    +0.041 A 
ATOM      3  C   UNL     1      -7.063  20.184  66.747  0.00  0.00    +0.234 A 
ATOM      4  O   UNL     1      -6.298  21.127  66.059  0.00  0.00    -0.283 OA
ATOM      5  C   UNL     1      -6.847  20.080  68.114  0.00  0.00    +0.234 A 
ATOM      6  O   UNL     1      -5.707  20.623  68.711  0.00  0.00    -0.283 OA
ATOM      7  C   UNL     1      -7.841  19.520  68.877  0.00  0.00    +0.045 A 
ATOM      8  C   UNL     1      -8.915  18.943  68.258  0.00  0.00    -0.001 A 
ENDROOT
BRANCH   1   9
ATOM      9  C   UNL     1     -10.247  18.194  66.300  0.00  0.00    +0.055 C 
BRANCH   9  11
ATOM     10  C   UNL     1     -10.445  16.084  67.522  0.00  0.00    +0.031 C 
ATOM     11  C   UNL     1     -10.005  16.695  66.223  0.00  0.00    +0.174 C 
ATOM     12  N   UNL     1      -8.612  16.394  65.919  0.00  0.00    -0.123 NA
BRANCH  11  13
ATOM     13  C   UNL     1     -10.813  16.103  65.121  0.00  0.00    +0.380 C 
ATOM     14  O   UNL     1     -10.650  14.768  64.734  0.00  0.00    -0.244 OA
ATOM     15  O   UNL     1     -11.300  16.853  64.219  0.00  0.00    -0.244 OA
ENDBRANCH  11  13
ENDBRANCH   9  11
ENDBRANCH   1   9
TORSDOF 3
ENDMDL
MODEL 7
REMARK VINA RESULT:      -5.2      4.084      6.792
REMARK  Name = 
REMARK  3 active torsions:
REMARK  status: ('A' for Active; 'I' for Inactive)
REMARK    1  A    between atoms: C_2  and  C_4
REMARK    2  A    between atoms: C_2  and  C_13
REMARK    3  A    between atoms: C_4  and  C_5
REMARK                            x       y       z     vdW  Elec       q    Type
REMARK                         _______ _______ _______ _____ _____    ______ ____
ROOT
ATOM      1  C   UNL     1     -10.372  14.776  66.221  0.00  0.00    -0.017 A 
ATOM      2  C   UNL     1     -10.491  14.821  67.606  0.00  0.00    +0.041 A 
ATOM      3  C   UNL     1     -10.495  16.047  68.260  0.00  0.00    +0.234 A 
ATOM      4  O   UNL     1     -10.297  16.115  69.640  0.00  0.00    -0.283 OA
ATOM      5  C   UNL     1     -10.478  17.248  67.566  0.00  0.00    +0.234 A 
ATOM      6  O   UNL     1     -10.603  18.471  68.229  0.00  0.00    -0.283 OA
ATOM      7  C   UNL     1     -10.224  17.203  66.218  0.00  0.00    +0.045 A 
ATOM      8  C   UNL     1     -10.168  15.990  65.588  0.00  0.00    -0.001 A 
ENDROOT
BRANCH   1   9
ATOM      9  C   UNL     1     -10.320  13.514  65.458  0.00  0.00    +0.055 C 
BRANCH   9  11
ATOM     10  C   UNL     1     -12.709  14.036  65.384  0.00  0.00    +0.031 C 
ATOM     11  C   UNL     1     -11.713  12.912  65.366  0.00  0.00    +0.174 C 
ATOM     12  N   UNL     1     -11.951  11.950  66.434  0.00  0.00    -0.123 NA
BRANCH  11  13
ATOM     13  C   UNL     1     -11.863  12.165  64.087  0.00  0.00    +0.380 C 
ATOM     14  O   UNL     1     -10.772  11.950  63.237  0.00  0.00    -0.244 OA
ATOM     15  O   UNL     1     -12.992  12.116  63.509  0.00  0.00    -0.244 OA
ENDBRANCH  11  13
ENDBRANCH   9  11
ENDBRANCH   1   9
TORSDOF 3
ENDMDL
MODEL 8
REMARK VINA RESULT:      -5.1      4.829      6.570
REMARK  Name = 
REMARK  3 active torsions:
REMARK  status: ('A' for Active; 'I' for Inactive)
REMARK    1  A    between atoms: C_2  and  C_4
REMARK    2  A    between atoms: C_2  and  C_13
REMARK    3  A    between atoms: C_4  and  C_5
REMARK                            x       y       z     vdW  Elec       q    Type
REMARK                         _______ _______ _______ _____ _____    ______ ____
ROOT
ATOM      1  C   UNL     1      -9.924  15.546  66.662  0.00  0.00    -0.017 A 
ATOM      2  C   UNL     1     -10.696  16.601  67.135  0.00  0.00    +0.041 A 
ATOM      3  C   UNL     1     -10.198  17.897  67.090  0.00  0.00    +0.234 A 
ATOM      4  O   UNL     1     -10.800  18.915  67.830  0.00  0.00    -0.283 OA
ATOM      5  C   UNL     1      -8.979  18.193  66.495  0.00  0.00    +0.234 A 
ATOM      6  O   UNL     1      -8.545  19.513  66.349  0.00  0.00    -0.283 OA
ATOM      7  C   UNL     1      -8.164  17.144  66.153  0.00  0.00    +0.045 A 
ATOM      8  C   UNL     1      -8.641  15.866  66.252  0.00  0.00    -0.001 A 
ENDROOT
BRANCH   1   9
ATOM      9  C   UNL     1     -10.366  14.139  66.712  0.00  0.00    +0.055 C 
BRANCH   9  11
ATOM     10  C   UNL     1     -10.119  13.079  64.522  0.00  0.00    +0.031 C 
ATOM     11  C   UNL     1     -11.092  13.781  65.425  0.00  0.00    +0.174 C 
ATOM     12  N   UNL     1     -11.674  14.959  64.795  0.00  0.00    -0.123 NA
BRANCH  11  13
ATOM     13  C   UNL     1     -12.223  12.859  65.716  0.00  0.00    +0.380 C 
ATOM     14  O   UNL     1     -12.111  11.851  66.680  0.00  0.00    -0.244 OA
ATOM     15  O   UNL     1     -13.106  12.639  64.831  0.00  0.00    -0.244 OA
ENDBRANCH  11  13
ENDBRANCH   9  11
ENDBRANCH   1   9
TORSDOF 3
ENDMDL
MODEL 9
REMARK VINA RESULT:      -5.1      4.724      5.150
REMARK  Name = 
REMARK  3 active torsions:
REMARK  status: ('A' for Active; 'I' for Inactive)
REMARK    1  A    between atoms: C_2  and  C_4
REMARK    2  A    between atoms: C_2  and  C_13
REMARK    3  A    between atoms: C_4  and  C_5
REMARK                            x       y       z     vdW  Elec       q    Type
REMARK                         _______ _______ _______ _____ _____    ______ ____
ROOT
ATOM      1  C   UNL     1      -9.242  15.083  66.322  0.00  0.00    -0.017 A 
ATOM      2  C   UNL     1      -9.945  16.068  65.637  0.00  0.00    +0.041 A 
ATOM      3  C   UNL     1     -11.054  15.722  64.875  0.00  0.00    +0.234 A 
ATOM      4  O   UNL     1     -11.580  16.616  63.942  0.00  0.00    -0.283 OA
ATOM      5  C   UNL     1     -11.549  14.426  64.847  0.00  0.00    +0.234 A 
ATOM      6  O   UNL     1     -12.733  14.115  64.175  0.00  0.00    -0.283 OA
ATOM      7  C   UNL     1     -10.781  13.437  65.410  0.00  0.00    +0.045 A 
ATOM      8  C   UNL     1      -9.659  13.780  66.113  0.00  0.00    -0.001 A 
ENDROOT
BRANCH   1   9
ATOM      9  C   UNL     1      -8.031  15.364  67.119  0.00  0.00    +0.055 C 
BRANCH   9  11
ATOM     10  C   UNL     1      -7.292  15.428  69.449  0.00  0.00    +0.031 C 
ATOM     11  C   UNL     1      -8.428  15.772  68.529  0.00  0.00    +0.174 C 
ATOM     12  N   UNL     1      -9.675  15.140  68.937  0.00  0.00    -0.123 NA
BRANCH  11  13
ATOM     13  C   UNL     1      -8.661  17.240  68.589  0.00  0.00    +0.380 C 
ATOM     14  O   UNL     1      -9.941  17.767  68.795  0.00  0.00    -0.244 OA
ATOM     15  O   UNL     1      -7.857  18.035  68.011  0.00  0.00    -0.244 OA
ENDBRANCH  11  13
ENDBRANCH   9  11
ENDBRANCH   1   9
TORSDOF 3
ENDMDL
