MODEL 1
REMARK VINA RESULT:      -8.3      0.000      0.000
REMARK  Name = 
REMARK  10 active torsions:
REMARK  status: ('A' for Active; 'I' for Inactive)
REMARK    1  A    between atoms: C_2  and  C_3
REMARK    2  A    between atoms: C_13  and  C_14
REMARK    3  A    between atoms: C_14  and  C_15
REMARK    4  A    between atoms: C_15  and  O_17
REMARK    5  A    between atoms: C_24  and  C_26
REMARK    6  A    between atoms: C_40  and  O_41
REMARK    7  A    between atoms: C_48  and  C_50
REMARK    8  A    between atoms: C_50  and  O_52
REMARK    9  A    between atoms: C_54  and  O_55
REMARK   10  A    between atoms: O_55  and  C_56
REMARK                            x       y       z     vdW  Elec       q    Type
REMARK                         _______ _______ _______ _____ _____    ______ ____
ROOT
ATOM      1  C   UNL     1      -7.978  18.820  67.663  0.00  0.00    +0.072 C 
ATOM      2  C   UNL     1      -8.020  17.525  66.692  0.00  0.00    +0.070 C 
ATOM      3  N   UNL     1      -9.477  17.795  66.184  0.00  0.00    -0.269 NA
ATOM      4  C   UNL     1     -10.213  16.655  66.529  0.00  0.00    +0.073 C 
ATOM      5  C   UNL     1      -9.878  16.622  68.022  0.00  0.00    +0.024 C 
ATOM      6  C   UNL     1      -9.957  19.053  66.440  0.00  0.00    +0.099 C 
ATOM      7  C   UNL     1     -10.162  19.317  67.910  0.00  0.00    -0.013 C 
ATOM      8  C   UNL     1      -8.439  16.442  67.832  0.00  0.00    +0.055 C 
ATOM      9  C   UNL     1      -7.606  16.865  69.154  0.00  0.00    +0.120 C 
ATOM     10  C   UNL     1      -6.227  17.323  68.435  0.00  0.00    +0.268 C 
ATOM     11  O   UNL     1      -5.423  17.415  69.601  0.00  0.00    -0.209 OA
ATOM     12  N   UNL     1      -7.045  15.429  69.480  0.00  0.00    -0.304 N 
ATOM     13  C   UNL     1      -6.247  15.304  70.685  0.00  0.00    +0.112 C 
ATOM     14  C   UNL     1      -7.145  14.654  68.350  0.00  0.00    +0.047 A 
ATOM     15  C   UNL     1      -6.596  13.399  68.098  0.00  0.00    +0.051 A 
ATOM     16  C   UNL     1      -7.223  12.579  67.173  0.00  0.00    +0.137 A 
ATOM     17  C   UNL     1      -8.564  12.800  66.880  0.00  0.00    +0.026 A 
ATOM     18  C   UNL     1      -8.954  14.109  66.987  0.00  0.00    -0.003 A 
ATOM     19  C   UNL     1      -8.119  15.122  67.482  0.00  0.00    -0.007 A 
ATOM     20  C   UNL     1      -6.450  18.921  68.184  0.00  0.00    +0.213 C 
ATOM     21  C   UNL     1      -8.999  19.033  68.530  0.00  0.00    -0.025 C 
ENDROOT
BRANCH  17  22
ATOM     22  C   UNL     1      -9.486  11.630  67.016  0.00  0.00    +0.146 C 
ATOM     23  C   UNL     1     -10.273  11.681  68.266  0.00  0.00    +0.068 A 
ATOM     24  C   UNL     1     -10.287  10.573  69.105  0.00  0.00    -0.005 A 
ATOM     25  C   UNL     1     -11.250  10.857  70.064  0.00  0.00    +0.015 A 
ATOM     26  C   UNL     1     -11.960  11.985  69.679  0.00  0.00    +0.081 A 
ATOM     27  C   UNL     1     -12.688  12.682  70.637  0.00  0.00    +0.019 A 
ATOM     28  C   UNL     1     -13.188  11.960  71.714  0.00  0.00    +0.002 A 
ATOM     29  C   UNL     1     -12.845  10.631  71.866  0.00  0.00    +0.000 A 
ATOM     30  C   UNL     1     -11.749  10.160  71.156  0.00  0.00    +0.001 A 
ATOM     31  C   UNL     1      -8.960   9.918  69.326  0.00  0.00    +0.045 C 
ATOM     32  C   UNL     1      -9.064   8.402  69.197  0.00  0.00    +0.077 C 
ATOM     33  N   UNL     1      -8.986   8.085  67.850  0.00  0.00    -0.270 NA
ATOM     34  C   UNL     1      -8.184   7.033  67.376  0.00  0.00    +0.103 C 
ATOM     35  C   UNL     1      -8.312   7.150  65.856  0.00  0.00    +0.141 C 
ATOM     36  C   UNL     1      -8.177   8.568  65.500  0.00  0.00    +0.033 C 
ATOM     37  C   UNL     1      -9.536   9.395  65.834  0.00  0.00    +0.020 C 
ATOM     38  O   UNL     1      -9.415   6.492  65.364  0.00  0.00    -0.224 OA
ATOM     39  C   UNL     1     -10.058   8.364  66.986  0.00  0.00    +0.072 C 
ATOM     40  N   UNL     1     -11.431  12.349  68.497  0.00  0.00    -0.249 NA
ATOM     41  C   UNL     1      -8.757  10.342  66.915  0.00  0.00    +0.022 C 
BRANCH  35  42
ATOM     42  C   UNL     1      -7.083   6.476  65.290  0.00  0.00    +0.032 C 
ATOM     43  C   UNL     1      -5.857   7.339  65.392  0.00  0.00    +0.003 C 
ENDBRANCH  35  42
BRANCH  22  44
ATOM     44  C   UNL     1     -10.427  11.725  65.854  0.00  0.00    +0.325 C 
ATOM     45  O   UNL     1     -11.667  11.708  65.966  0.00  0.00    -0.249 OA
BRANCH  44  46
ATOM     46  O   UNL     1      -9.909  12.067  64.608  0.00  0.00    -0.444 OA
ATOM     47  C   UNL     1     -10.716  12.188  63.460  0.00  0.00    +0.256 C 
ENDBRANCH  44  46
ENDBRANCH  22  44
ENDBRANCH  17  22
BRANCH  16  48
ATOM     48  O   UNL     1      -6.627  11.563  66.470  0.00  0.00    -0.472 OA
ATOM     49  C   UNL     1      -5.207  11.438  66.501  0.00  0.00    +0.252 C 
ENDBRANCH  16  48
BRANCH  10  50
ATOM     50  C   UNL     1      -5.569  16.614  67.509  0.00  0.00    +0.350 C 
ATOM     51  O   UNL     1      -4.641  15.815  67.915  0.00  0.00    -0.247 OA
BRANCH  50  52
ATOM     52  O   UNL     1      -5.357  16.556  66.125  0.00  0.00    -0.443 OA
ATOM     53  C   UNL     1      -4.579  17.437  65.380  0.00  0.00    +0.256 C 
ENDBRANCH  50  52
ENDBRANCH  10  50
BRANCH   1  55
ATOM     54  C   UNL     1      -6.826  20.272  66.423  0.00  0.00    +0.001 C 
ATOM     55  C   UNL     1      -7.930  19.925  66.607  0.00  0.00    +0.009 C 
ENDBRANCH   1  55
BRANCH  20  56
ATOM     56  O   UNL     1      -6.893  19.199  69.644  0.00  0.00    -0.449 OA
BRANCH  56  57
ATOM     57  C   UNL     1      -6.118  20.141  70.303  0.00  0.00    +0.318 C 
ATOM     58  O   UNL     1      -6.430  20.438  71.494  0.00  0.00    -0.250 OA
ATOM     59  C   UNL     1      -5.015  20.900  69.653  0.00  0.00    +0.121 C 
ENDBRANCH  56  57
ENDBRANCH  20  56
TORSDOF 10
ENDMDL
MODEL 2
REMARK VINA RESULT:      -7.6      2.394      5.478
REMARK  Name = 
REMARK  10 active torsions:
REMARK  status: ('A' for Active; 'I' for Inactive)
REMARK    1  A    between atoms: C_2  and  C_3
REMARK    2  A    between atoms: C_13  and  C_14
REMARK    3  A    between atoms: C_14  and  C_15
REMARK    4  A    between atoms: C_15  and  O_17
REMARK    5  A    between atoms: C_24  and  C_26
REMARK    6  A    between atoms: C_40  and  O_41
REMARK    7  A    between atoms: C_48  and  C_50
REMARK    8  A    between atoms: C_50  and  O_52
REMARK    9  A    between atoms: C_54  and  O_55
REMARK   10  A    between atoms: O_55  and  C_56
REMARK                            x       y       z     vdW  Elec       q    Type
REMARK                         _______ _______ _______ _____ _____    ______ ____
ROOT
ATOM      1  C   UNL     1      -7.092  17.357  68.073  0.00  0.00    +0.072 C 
ATOM      2  C   UNL     1      -7.448  16.079  69.002  0.00  0.00    +0.070 C 
ATOM      3  N   UNL     1      -5.956  15.756  69.351  0.00  0.00    -0.269 NA
ATOM      4  C   UNL     1      -5.738  14.449  68.899  0.00  0.00    +0.073 C 
ATOM      5  C   UNL     1      -6.200  14.638  67.453  0.00  0.00    +0.024 C 
ATOM      6  C   UNL     1      -5.065  16.760  69.073  0.00  0.00    +0.099 C 
ATOM      7  C   UNL     1      -4.915  17.022  67.596  0.00  0.00    -0.013 C 
ATOM      8  C   UNL     1      -7.577  14.993  67.798  0.00  0.00    +0.055 C 
ATOM      9  C   UNL     1      -8.310  15.779  66.587  0.00  0.00    +0.120 C 
ATOM     10  C   UNL     1      -9.341  16.669  67.466  0.00  0.00    +0.268 C 
ATOM     11  O   UNL     1     -10.159  17.127  66.400  0.00  0.00    -0.209 OA
ATOM     12  N   UNL     1      -9.397  14.678  66.292  0.00  0.00    -0.304 N 
ATOM     13  C   UNL     1     -10.294  14.935  65.181  0.00  0.00    +0.112 C 
ATOM     14  C   UNL     1      -9.491  13.850  67.385  0.00  0.00    +0.047 A 
ATOM     15  C   UNL     1     -10.444  12.875  67.667  0.00  0.00    +0.051 A 
ATOM     16  C   UNL     1     -10.087  11.823  68.496  0.00  0.00    +0.137 A 
ATOM     17  C   UNL     1      -8.740  11.512  68.643  0.00  0.00    +0.026 A 
ATOM     18  C   UNL     1      -7.898  12.587  68.524  0.00  0.00    -0.003 A 
ATOM     19  C   UNL     1      -8.335  13.867  68.149  0.00  0.00    -0.007 A 
ATOM     20  C   UNL     1      -8.512  18.050  67.728  0.00  0.00    +0.213 C 
ATOM     21  C   UNL     1      -6.153  17.230  67.103  0.00  0.00    -0.025 C 
ENDROOT
BRANCH  17  22
ATOM     22  C   UNL     1      -8.343  10.095  68.377  0.00  0.00    +0.146 C 
ATOM     23  C   UNL     1      -8.054   9.854  66.947  0.00  0.00    +0.068 A 
ATOM     24  C   UNL     1      -8.679   8.796  66.297  0.00  0.00    -0.005 A 
ATOM     25  C   UNL     1      -8.061   8.719  65.056  0.00  0.00    +0.015 A 
ATOM     26  C   UNL     1      -6.943   9.539  65.049  0.00  0.00    +0.081 A 
ATOM     27  C   UNL     1      -6.401   9.931  63.830  0.00  0.00    +0.019 A 
ATOM     28  C   UNL     1      -6.555   9.065  62.754  0.00  0.00    +0.002 A 
ATOM     29  C   UNL     1      -7.332   7.932  62.890  0.00  0.00    +0.000 A 
ATOM     30  C   UNL     1      -8.212   7.876  63.963  0.00  0.00    +0.001 A 
ATOM     31  C   UNL     1     -10.137   8.634  66.590  0.00  0.00    +0.045 C 
ATOM     32  C   UNL     1     -10.484   7.176  66.876  0.00  0.00    +0.077 C 
ATOM     33  N   UNL     1     -10.197   6.925  68.209  0.00  0.00    -0.270 NA
ATOM     34  C   UNL     1     -11.081   6.220  69.042  0.00  0.00    +0.103 C 
ATOM     35  C   UNL     1     -10.414   6.308  70.417  0.00  0.00    +0.141 C 
ATOM     36  C   UNL     1      -9.962   7.691  70.610  0.00  0.00    +0.033 C 
ATOM     37  C   UNL     1      -8.609   7.996  69.763  0.00  0.00    +0.020 C 
ATOM     38  O   UNL     1      -9.481   5.319  70.618  0.00  0.00    -0.224 OA
ATOM     39  C   UNL     1      -8.866   6.832  68.649  0.00  0.00    +0.072 C 
ATOM     40  N   UNL     1      -6.894  10.081  66.281  0.00  0.00    -0.249 NA
ATOM     41  C   UNL     1      -9.364   9.137  68.868  0.00  0.00    +0.022 C 
BRANCH  35  42
ATOM     42  C   UNL     1     -11.525   6.106  71.422  0.00  0.00    +0.032 C 
ATOM     43  C   UNL     1     -12.568   7.184  71.350  0.00  0.00    +0.003 C 
ENDBRANCH  35  42
BRANCH  22  44
ATOM     44  C   UNL     1      -7.085   9.879  69.163  0.00  0.00    +0.325 C 
ATOM     45  O   UNL     1      -6.094   9.264  68.725  0.00  0.00    -0.249 OA
BRANCH  44  46
ATOM     46  O   UNL     1      -6.921  10.576  70.355  0.00  0.00    -0.444 OA
ATOM     47  C   UNL     1      -5.654  10.815  70.923  0.00  0.00    +0.256 C 
ENDBRANCH  44  46
ENDBRANCH  22  44
ENDBRANCH  17  22
BRANCH  16  48
ATOM     48  O   UNL     1     -10.952  11.059  69.237  0.00  0.00    -0.472 OA
ATOM     49  C   UNL     1     -11.898  11.706  70.085  0.00  0.00    +0.252 C 
ENDBRANCH  16  48
BRANCH  10  50
ATOM     50  C   UNL     1     -10.127  16.197  68.443  0.00  0.00    +0.350 C 
ATOM     51  O   UNL     1     -11.402  16.207  68.243  0.00  0.00    -0.247 OA
BRANCH  50  52
ATOM     52  O   UNL     1     -10.092  15.849  69.800  0.00  0.00    -0.443 OA
ATOM     53  C   UNL     1     -11.173  15.410  70.559  0.00  0.00    +0.256 C 
ENDBRANCH  50  52
ENDBRANCH  10  50
BRANCH   1  55
ATOM     54  C   UNL     1      -7.345  19.249  69.225  0.00  0.00    +0.001 C 
ATOM     55  C   UNL     1      -6.621  18.331  69.155  0.00  0.00    +0.009 C 
ENDBRANCH   1  55
BRANCH  20  56
ATOM     56  O   UNL     1      -8.137  18.237  66.235  0.00  0.00    -0.449 OA
BRANCH  56  57
ATOM     57  C   UNL     1      -8.047  19.561  65.833  0.00  0.00    +0.318 C 
ATOM     58  O   UNL     1      -9.050  20.309  66.028  0.00  0.00    -0.250 OA
ATOM     59  C   UNL     1      -6.885  20.117  65.089  0.00  0.00    +0.121 C 
ENDBRANCH  56  57
ENDBRANCH  20  56
TORSDOF 10
ENDMDL
MODEL 3
REMARK VINA RESULT:      -7.5      1.330      1.712
REMARK  Name = 
REMARK  10 active torsions:
REMARK  status: ('A' for Active; 'I' for Inactive)
REMARK    1  A    between atoms: C_2  and  C_3
REMARK    2  A    between atoms: C_13  and  C_14
REMARK    3  A    between atoms: C_14  and  C_15
REMARK    4  A    between atoms: C_15  and  O_17
REMARK    5  A    between atoms: C_24  and  C_26
REMARK    6  A    between atoms: C_40  and  O_41
REMARK    7  A    between atoms: C_48  and  C_50
REMARK    8  A    between atoms: C_50  and  O_52
REMARK    9  A    between atoms: C_54  and  O_55
REMARK   10  A    between atoms: O_55  and  C_56
REMARK                            x       y       z     vdW  Elec       q    Type
REMARK                         _______ _______ _______ _____ _____    ______ ____
ROOT
ATOM      1  C   UNL     1      -6.392  17.520  68.133  0.00  0.00    +0.072 C 
ATOM      2  C   UNL     1      -6.466  16.166  67.250  0.00  0.00    +0.070 C 
ATOM      3  N   UNL     1      -7.719  16.620  66.427  0.00  0.00    -0.269 NA
ATOM      4  C   UNL     1      -8.699  15.650  66.669  0.00  0.00    +0.073 C 
ATOM      5  C   UNL     1      -8.684  15.700  68.199  0.00  0.00    +0.024 C 
ATOM      6  C   UNL     1      -8.011  17.957  66.504  0.00  0.00    +0.099 C 
ATOM      7  C   UNL     1      -8.457  18.384  67.879  0.00  0.00    -0.013 C 
ATOM      8  C   UNL     1      -7.291  15.273  68.331  0.00  0.00    +0.055 C 
ATOM      9  C   UNL     1      -6.680  15.676  69.776  0.00  0.00    +0.120 C 
ATOM     10  C   UNL     1      -5.126  15.838  69.344  0.00  0.00    +0.268 C 
ATOM     11  O   UNL     1      -4.570  15.904  70.649  0.00  0.00    -0.209 OA
ATOM     12  N   UNL     1      -6.460  14.204  70.293  0.00  0.00    -0.304 N 
ATOM     13  C   UNL     1      -5.956  14.063  71.646  0.00  0.00    +0.112 C 
ATOM     14  C   UNL     1      -6.465  13.355  69.213  0.00  0.00    +0.047 A 
ATOM     15  C   UNL     1      -6.108  12.010  69.155  0.00  0.00    +0.051 A 
ATOM     16  C   UNL     1      -6.671  11.221  68.164  0.00  0.00    +0.137 A 
ATOM     17  C   UNL     1      -7.865  11.628  67.578  0.00  0.00    +0.026 A 
ATOM     18  C   UNL     1      -8.030  12.987  67.527  0.00  0.00    -0.003 A 
ATOM     19  C   UNL     1      -7.146  13.893  68.133  0.00  0.00    -0.007 A 
ATOM     20  C   UNL     1      -5.007  17.420  68.964  0.00  0.00    +0.213 C 
ATOM     21  C   UNL     1      -7.512  17.973  68.748  0.00  0.00    -0.025 C 
ENDROOT
BRANCH  17  22
ATOM     22  C   UNL     1      -8.987  10.639  67.579  0.00  0.00    +0.146 C 
ATOM     23  C   UNL     1      -9.918  10.852  68.707  0.00  0.00    +0.068 A 
ATOM     24  C   UNL     1     -10.243   9.780  69.530  0.00  0.00    -0.005 A 
ATOM     25  C   UNL     1     -11.264  10.247  70.347  0.00  0.00    +0.015 A 
ATOM     26  C   UNL     1     -11.706  11.473  69.871  0.00  0.00    +0.081 A 
ATOM     27  C   UNL     1     -12.425  12.306  70.721  0.00  0.00    +0.019 A 
ATOM     28  C   UNL     1     -13.188  11.703  71.715  0.00  0.00    +0.002 A 
ATOM     29  C   UNL     1     -13.108  10.338  71.906  0.00  0.00    +0.000 A 
ATOM     30  C   UNL     1     -12.024   9.669  71.355  0.00  0.00    +0.001 A 
ATOM     31  C   UNL     1      -9.095   8.909  69.932  0.00  0.00    +0.045 C 
ATOM     32  C   UNL     1      -9.444   7.431  69.781  0.00  0.00    +0.077 C 
ATOM     33  N   UNL     1      -9.237   7.079  68.457  0.00  0.00    -0.270 NA
ATOM     34  C   UNL     1      -8.574   5.894  68.095  0.00  0.00    +0.103 C 
ATOM     35  C   UNL     1      -8.469   6.002  66.572  0.00  0.00    +0.141 C 
ATOM     36  C   UNL     1      -8.039   7.367  66.246  0.00  0.00    +0.033 C 
ATOM     37  C   UNL     1      -9.264   8.425  66.390  0.00  0.00    +0.020 C 
ATOM     38  O   UNL     1      -9.591   5.536  65.928  0.00  0.00    -0.224 OA
ATOM     39  C   UNL     1     -10.113   7.524  67.453  0.00  0.00    +0.072 C 
ATOM     40  N   UNL     1     -10.962  11.716  68.777  0.00  0.00    -0.249 NA
ATOM     41  C   UNL     1      -8.488   9.242  67.574  0.00  0.00    +0.022 C 
BRANCH  35  42
ATOM     42  C   UNL     1      -7.310   5.113  66.180  0.00  0.00    +0.032 C 
ATOM     43  C   UNL     1      -6.125   5.896  65.690  0.00  0.00    +0.003 C 
ENDBRANCH  35  42
BRANCH  22  44
ATOM     44  C   UNL     1      -9.726  10.875  66.297  0.00  0.00    +0.325 C 
ATOM     45  O   UNL     1     -10.949  11.105  66.236  0.00  0.00    -0.249 OA
BRANCH  44  46
ATOM     46  O   UNL     1      -8.989  11.063  65.132  0.00  0.00    -0.444 OA
ATOM     47  C   UNL     1      -9.584  11.081  63.855  0.00  0.00    +0.256 C 
ENDBRANCH  44  46
ENDBRANCH  22  44
ENDBRANCH  17  22
BRANCH  16  48
ATOM     48  O   UNL     1      -6.135  10.062  67.662  0.00  0.00    -0.472 OA
ATOM     49  C   UNL     1      -5.151  10.142  66.633  0.00  0.00    +0.252 C 
ENDBRANCH  16  48
BRANCH  10  50
ATOM     50  C   UNL     1      -4.431  14.949  68.622  0.00  0.00    +0.350 C 
ATOM     51  O   UNL     1      -3.480  14.309  69.213  0.00  0.00    -0.247 OA
BRANCH  50  52
ATOM     52  O   UNL     1      -4.199  14.565  67.295  0.00  0.00    -0.443 OA
ATOM     53  C   UNL     1      -3.355  13.540  66.876  0.00  0.00    +0.256 C 
ENDBRANCH  50  52
ENDBRANCH  10  50
BRANCH   1  55
ATOM     54  C   UNL     1      -4.773  18.464  66.925  0.00  0.00    +0.001 C 
ATOM     55  C   UNL     1      -5.937  18.502  67.052  0.00  0.00    +0.009 C 
ENDBRANCH   1  55
BRANCH  20  56
ATOM     56  O   UNL     1      -5.679  17.899  70.277  0.00  0.00    -0.449 OA
BRANCH  56  57
ATOM     57  C   UNL     1      -5.064  18.995  70.863  0.00  0.00    +0.318 C 
ATOM     58  O   UNL     1      -4.938  19.000  72.123  0.00  0.00    -0.250 OA
ATOM     59  C   UNL     1      -4.649  20.207  70.106  0.00  0.00    +0.121 C 
ENDBRANCH  56  57
ENDBRANCH  20  56
TORSDOF 10
ENDMDL
MODEL 4
REMARK VINA RESULT:      -7.3      2.829      6.401
REMARK  Name = 
REMARK  10 active torsions:
REMARK  status: ('A' for Active; 'I' for Inactive)
REMARK    1  A    between atoms: C_2  and  C_3
REMARK    2  A    between atoms: C_13  and  C_14
REMARK    3  A    between atoms: C_14  and  C_15
REMARK    4  A    between atoms: C_15  and  O_17
REMARK    5  A    between atoms: C_24  and  C_26
REMARK    6  A    between atoms: C_40  and  O_41
REMARK    7  A    between atoms: C_48  and  C_50
REMARK    8  A    between atoms: C_50  and  O_52
REMARK    9  A    between atoms: C_54  and  O_55
REMARK   10  A    between atoms: O_55  and  C_56
REMARK                            x       y       z     vdW  Elec       q    Type
REMARK                         _______ _______ _______ _____ _____    ______ ____
ROOT
ATOM      1  C   UNL     1      -8.810  15.826  67.796  0.00  0.00    +0.072 C 
ATOM      2  C   UNL     1      -8.825  14.687  68.946  0.00  0.00    +0.070 C 
ATOM      3  N   UNL     1      -7.273  14.707  69.163  0.00  0.00    -0.269 NA
ATOM      4  C   UNL     1      -6.840  13.403  68.897  0.00  0.00    +0.073 C 
ATOM      5  C   UNL     1      -7.452  13.249  67.502  0.00  0.00    +0.024 C 
ATOM      6  C   UNL     1      -6.627  15.791  68.631  0.00  0.00    +0.099 C 
ATOM      7  C   UNL     1      -6.659  15.815  67.124  0.00  0.00    -0.013 C 
ATOM      8  C   UNL     1      -8.837  13.402  67.947  0.00  0.00    +0.055 C 
ATOM      9  C   UNL     1      -9.812  13.818  66.724  0.00  0.00    +0.120 C 
ATOM     10  C   UNL     1     -10.921  14.645  67.570  0.00  0.00    +0.268 C 
ATOM     11  O   UNL     1     -11.901  14.754  66.548  0.00  0.00    -0.209 OA
ATOM     12  N   UNL     1     -10.680  12.503  66.732  0.00  0.00    -0.304 N 
ATOM     13  C   UNL     1     -11.701  12.395  65.707  0.00  0.00    +0.112 C 
ATOM     14  C   UNL     1     -10.513  11.876  67.943  0.00  0.00    +0.047 A 
ATOM     15  C   UNL     1     -11.226  10.807  68.482  0.00  0.00    +0.051 A 
ATOM     16  C   UNL     1     -10.598  10.000  69.417  0.00  0.00    +0.137 A 
ATOM     17  C   UNL     1      -9.208   9.969  69.451  0.00  0.00    +0.026 A 
ATOM     18  C   UNL     1      -8.610  11.142  69.069  0.00  0.00    -0.003 A 
ATOM     19  C   UNL     1      -9.323  12.236  68.555  0.00  0.00    -0.007 A 
ATOM     20  C   UNL     1     -10.364  16.178  67.516  0.00  0.00    +0.213 C 
ATOM     21  C   UNL     1      -7.951  15.705  66.754  0.00  0.00    -0.025 C 
ENDROOT
BRANCH  17  22
ATOM     22  C   UNL     1      -8.561   8.623  69.363  0.00  0.00    +0.146 C 
ATOM     23  C   UNL     1      -8.549   8.098  67.981  0.00  0.00    +0.068 A 
ATOM     24  C   UNL     1      -9.039   6.821  67.736  0.00  0.00    -0.005 A 
ATOM     25  C   UNL     1      -8.712   6.555  66.413  0.00  0.00    +0.015 A 
ATOM     26  C   UNL     1      -7.846   7.535  65.950  0.00  0.00    +0.081 A 
ATOM     27  C   UNL     1      -7.696   7.709  64.579  0.00  0.00    +0.019 A 
ATOM     28  C   UNL     1      -7.879   6.594  63.769  0.00  0.00    +0.002 A 
ATOM     29  C   UNL     1      -8.321   5.409  64.322  0.00  0.00    +0.000 A 
ATOM     30  C   UNL     1      -8.901   5.460  65.581  0.00  0.00    +0.001 A 
ATOM     31  C   UNL     1     -10.316   6.478  68.436  0.00  0.00    +0.045 C 
ATOM     32  C   UNL     1     -10.241   5.095  69.076  0.00  0.00    +0.077 C 
ATOM     33  N   UNL     1      -9.615   5.230  70.305  0.00  0.00    -0.270 NA
ATOM     34  C   UNL     1     -10.102   4.603  71.464  0.00  0.00    +0.103 C 
ATOM     35  C   UNL     1      -9.185   5.139  72.566  0.00  0.00    +0.141 C 
ATOM     36  C   UNL     1      -9.036   6.585  72.364  0.00  0.00    +0.033 C 
ATOM     37  C   UNL     1      -8.016   6.911  71.142  0.00  0.00    +0.020 C 
ATOM     38  O   UNL     1      -8.027   4.410  72.694  0.00  0.00    -0.224 OA
ATOM     39  C   UNL     1      -8.235   5.485  70.381  0.00  0.00    +0.072 C 
ATOM     40  N   UNL     1      -7.652   8.359  66.997  0.00  0.00    -0.249 NA
ATOM     41  C   UNL     1      -9.195   7.648  70.283  0.00  0.00    +0.022 C 
BRANCH  35  42
ATOM     42  C   UNL     1      -9.966   4.993  73.852  0.00  0.00    +0.032 C 
ATOM     43  C   UNL     1      -9.882   6.218  74.718  0.00  0.00    +0.003 C 
ENDBRANCH  35  42
BRANCH  22  44
ATOM     44  C   UNL     1      -7.145   8.831  69.808  0.00  0.00    +0.325 C 
ATOM     45  O   UNL     1      -6.154   8.432  69.168  0.00  0.00    -0.249 OA
BRANCH  44  46
ATOM     46  O   UNL     1      -6.905   9.696  70.871  0.00  0.00    -0.444 OA
ATOM     47  C   UNL     1      -5.619  10.187  71.172  0.00  0.00    +0.256 C 
ENDBRANCH  44  46
ENDBRANCH  22  44
ENDBRANCH  17  22
BRANCH  16  48
ATOM     48  O   UNL     1     -11.227   9.232  70.363  0.00  0.00    -0.472 OA
ATOM     49  C   UNL     1     -12.112   9.858  71.288  0.00  0.00    +0.252 C 
ENDBRANCH  16  48
BRANCH  10  50
ATOM     50  C   UNL     1     -11.511  14.215  68.693  0.00  0.00    +0.350 C 
ATOM     51  O   UNL     1     -12.746  13.850  68.618  0.00  0.00    -0.247 OA
BRANCH  50  52
ATOM     52  O   UNL     1     -11.333  14.200  70.082  0.00  0.00    -0.443 OA
ATOM     53  C   UNL     1     -12.277  13.798  71.024  0.00  0.00    +0.256 C 
ENDBRANCH  50  52
ENDBRANCH  10  50
BRANCH   1  55
ATOM     54  C   UNL     1      -9.416  17.648  68.929  0.00  0.00    +0.001 C 
ATOM     55  C   UNL     1      -8.452  17.042  68.650  0.00  0.00    +0.009 C 
ENDBRANCH   1  55
BRANCH  20  56
ATOM     56  O   UNL     1     -10.163  16.167  65.978  0.00  0.00    -0.449 OA
BRANCH  56  57
ATOM     57  C   UNL     1     -10.713  17.259  65.325  0.00  0.00    +0.318 C 
ATOM     58  O   UNL     1     -11.326  17.051  64.236  0.00  0.00    -0.250 OA
ATOM     59  C   UNL     1     -10.527  18.665  65.774  0.00  0.00    +0.121 C 
ENDBRANCH  56  57
ENDBRANCH  20  56
TORSDOF 10
ENDMDL
MODEL 5
REMARK VINA RESULT:      -7.3      2.061      3.931
REMARK  Name = 
REMARK  10 active torsions:
REMARK  status: ('A' for Active; 'I' for Inactive)
REMARK    1  A    between atoms: C_2  and  C_3
REMARK    2  A    between atoms: C_13  and  C_14
REMARK    3  A    between atoms: C_14  and  C_15
REMARK    4  A    between atoms: C_15  and  O_17
REMARK    5  A    between atoms: C_24  and  C_26
REMARK    6  A    between atoms: C_40  and  O_41
REMARK    7  A    between atoms: C_48  and  C_50
REMARK    8  A    between atoms: C_50  and  O_52
REMARK    9  A    between atoms: C_54  and  O_55
REMARK   10  A    between atoms: O_55  and  C_56
REMARK                            x       y       z     vdW  Elec       q    Type
REMARK                         _______ _______ _______ _____ _____    ______ ____
ROOT
ATOM      1  C   UNL     1      -6.806  17.984  67.815  0.00  0.00    +0.072 C 
ATOM      2  C   UNL     1      -7.427  16.838  68.775  0.00  0.00    +0.070 C 
ATOM      3  N   UNL     1      -6.036  16.226  69.158  0.00  0.00    -0.269 NA
ATOM      4  C   UNL     1      -6.088  14.889  68.749  0.00  0.00    +0.073 C 
ATOM      5  C   UNL     1      -6.486  15.122  67.290  0.00  0.00    +0.024 C 
ATOM      6  C   UNL     1      -4.955  17.016  68.865  0.00  0.00    +0.099 C 
ATOM      7  C   UNL     1      -4.739  17.195  67.385  0.00  0.00    -0.013 C 
ATOM      8  C   UNL     1      -7.763  15.762  67.601  0.00  0.00    +0.055 C 
ATOM      9  C   UNL     1      -8.307  16.643  66.356  0.00  0.00    +0.120 C 
ATOM     10  C   UNL     1      -9.141  17.754  67.191  0.00  0.00    +0.268 C 
ATOM     11  O   UNL     1      -9.836  18.335  66.098  0.00  0.00    -0.209 OA
ATOM     12  N   UNL     1      -9.594  15.779  66.075  0.00  0.00    -0.304 N 
ATOM     13  C   UNL     1     -10.407  16.179  64.942  0.00  0.00    +0.112 C 
ATOM     14  C   UNL     1      -9.867  15.024  67.190  0.00  0.00    +0.047 A 
ATOM     15  C   UNL     1     -11.004  14.275  67.484  0.00  0.00    +0.051 A 
ATOM     16  C   UNL     1     -10.879  13.200  68.350  0.00  0.00    +0.137 A 
ATOM     17  C   UNL     1      -9.627  12.624  68.529  0.00  0.00    +0.026 A 
ATOM     18  C   UNL     1      -8.581  13.499  68.392  0.00  0.00    -0.003 A 
ATOM     19  C   UNL     1      -8.740  14.828  67.973  0.00  0.00    -0.007 A 
ATOM     20  C   UNL     1      -8.049  18.943  67.426  0.00  0.00    +0.213 C 
ATOM     21  C   UNL     1      -5.902  17.636  66.865  0.00  0.00    -0.025 C 
ENDROOT
BRANCH  17  22
ATOM     22  C   UNL     1      -9.527  11.147  68.312  0.00  0.00    +0.146 C 
ATOM     23  C   UNL     1     -10.036  10.377  69.466  0.00  0.00    +0.068 A 
ATOM     24  C   UNL     1      -9.239   9.383  70.023  0.00  0.00    -0.005 A 
ATOM     25  C   UNL     1     -10.059   8.730  70.933  0.00  0.00    +0.015 A 
ATOM     26  C   UNL     1     -11.368   9.153  70.756  0.00  0.00    +0.081 A 
ATOM     27  C   UNL     1     -12.287   8.951  71.780  0.00  0.00    +0.019 A 
ATOM     28  C   UNL     1     -12.085   7.857  72.614  0.00  0.00    +0.002 A 
ATOM     29  C   UNL     1     -10.938   7.100  72.486  0.00  0.00    +0.000 A 
ATOM     30  C   UNL     1      -9.873   7.651  71.787  0.00  0.00    +0.001 A 
ATOM     31  C   UNL     1      -7.798   9.743  70.205  0.00  0.00    +0.045 C 
ATOM     32  C   UNL     1      -6.884   8.621  69.722  0.00  0.00    +0.077 C 
ATOM     33  N   UNL     1      -6.736   8.756  68.350  0.00  0.00    -0.270 NA
ATOM     34  C   UNL     1      -5.485   8.644  67.721  0.00  0.00    +0.103 C 
ATOM     35  C   UNL     1      -5.793   8.991  66.262  0.00  0.00    +0.141 C 
ATOM     36  C   UNL     1      -6.662  10.175  66.255  0.00  0.00    +0.033 C 
ATOM     37  C   UNL     1      -8.191   9.790  66.648  0.00  0.00    +0.020 C 
ATOM     38  O   UNL     1      -6.222   7.905  65.538  0.00  0.00    -0.224 OA
ATOM     39  C   UNL     1      -7.796   8.444  67.482  0.00  0.00    +0.072 C 
ATOM     40  N   UNL     1     -11.320  10.035  69.740  0.00  0.00    -0.249 NA
ATOM     41  C   UNL     1      -8.141  10.733  67.982  0.00  0.00    +0.022 C 
BRANCH  35  42
ATOM     42  C   UNL     1      -4.482   9.453  65.668  0.00  0.00    +0.032 C 
ATOM     43  C   UNL     1      -4.312  10.944  65.740  0.00  0.00    +0.003 C 
ENDBRANCH  35  42
BRANCH  22  44
ATOM     44  C   UNL     1     -10.394  10.860  67.124  0.00  0.00    +0.325 C 
ATOM     45  O   UNL     1     -11.424  10.161  67.173  0.00  0.00    -0.249 OA
BRANCH  44  46
ATOM     46  O   UNL     1     -10.171  11.576  65.952  0.00  0.00    -0.444 OA
ATOM     47  C   UNL     1     -11.103  11.609  64.896  0.00  0.00    +0.256 C 
ENDBRANCH  44  46
ENDBRANCH  22  44
ENDBRANCH  17  22
BRANCH  16  48
ATOM     48  O   UNL     1     -11.891  12.654  69.099  0.00  0.00    -0.472 OA
ATOM     49  C   UNL     1     -12.231  13.253  70.347  0.00  0.00    +0.252 C 
ENDBRANCH  16  48
BRANCH  10  50
ATOM     50  C   UNL     1     -10.018  17.485  68.167  0.00  0.00    +0.350 C 
ATOM     51  O   UNL     1     -11.266  17.711  67.931  0.00  0.00    -0.247 OA
BRANCH  50  52
ATOM     52  O   UNL     1     -10.072  17.213  69.541  0.00  0.00    -0.443 OA
ATOM     53  C   UNL     1     -11.099  16.546  70.203  0.00  0.00    +0.256 C 
ENDBRANCH  50  52
ENDBRANCH  10  50
BRANCH   1  55
ATOM     54  C   UNL     1      -6.927  19.655  69.286  0.00  0.00    +0.001 C 
ATOM     55  C   UNL     1      -6.156  18.875  68.875  0.00  0.00    +0.009 C 
ENDBRANCH   1  55
BRANCH  20  56
ATOM     56  O   UNL     1      -7.628  19.000  65.934  0.00  0.00    -0.449 OA
BRANCH  56  57
ATOM     57  C   UNL     1      -7.013  20.186  65.562  0.00  0.00    +0.318 C 
ATOM     58  O   UNL     1      -7.069  21.161  66.369  0.00  0.00    -0.250 OA
ATOM     59  C   UNL     1      -6.391  20.407  64.228  0.00  0.00    +0.121 C 
ENDBRANCH  56  57
ENDBRANCH  20  56
TORSDOF 10
ENDMDL
MODEL 6
REMARK VINA RESULT:      -6.5      3.868     10.253
REMARK  Name = 
REMARK  10 active torsions:
REMARK  status: ('A' for Active; 'I' for Inactive)
REMARK    1  A    between atoms: C_2  and  C_3
REMARK    2  A    between atoms: C_13  and  C_14
REMARK    3  A    between atoms: C_14  and  C_15
REMARK    4  A    between atoms: C_15  and  O_17
REMARK    5  A    between atoms: C_24  and  C_26
REMARK    6  A    between atoms: C_40  and  O_41
REMARK    7  A    between atoms: C_48  and  C_50
REMARK    8  A    between atoms: C_50  and  O_52
REMARK    9  A    between atoms: C_54  and  O_55
REMARK   10  A    between atoms: O_55  and  C_56
REMARK                            x       y       z     vdW  Elec       q    Type
REMARK                         _______ _______ _______ _____ _____    ______ ____
ROOT
ATOM      1  C   UNL     1      -8.808   5.483  72.207  0.00  0.00    +0.072 C 
ATOM      2  C   UNL     1      -8.727   7.099  72.234  0.00  0.00    +0.070 C 
ATOM      3  N   UNL     1      -9.833   7.263  73.332  0.00  0.00    -0.269 NA
ATOM      4  C   UNL     1     -10.832   8.048  72.745  0.00  0.00    +0.073 C 
ATOM      5  C   UNL     1     -11.066   7.203  71.491  0.00  0.00    +0.024 C 
ATOM      6  C   UNL     1     -10.143   6.118  74.018  0.00  0.00    +0.099 C 
ATOM      7  C   UNL     1     -10.811   5.077  73.157  0.00  0.00    -0.013 C 
ATOM      8  C   UNL     1      -9.711   7.365  70.966  0.00  0.00    +0.055 C 
ATOM      9  C   UNL     1      -9.346   6.210  69.891  0.00  0.00    +0.120 C 
ATOM     10  C   UNL     1      -7.744   6.154  70.130  0.00  0.00    +0.268 C 
ATOM     11  O   UNL     1      -7.409   5.362  69.000  0.00  0.00    -0.209 OA
ATOM     12  N   UNL     1      -9.203   7.164  68.646  0.00  0.00    -0.304 N 
ATOM     13  C   UNL     1      -8.925   6.528  67.372  0.00  0.00    +0.112 C 
ATOM     14  C   UNL     1      -9.025   8.450  69.097  0.00  0.00    +0.047 A 
ATOM     15  C   UNL     1      -8.653   9.585  68.382  0.00  0.00    +0.051 A 
ATOM     16  C   UNL     1      -9.041  10.825  68.865  0.00  0.00    +0.137 A 
ATOM     17  C   UNL     1     -10.126  10.899  69.732  0.00  0.00    +0.026 A 
ATOM     18  C   UNL     1     -10.292   9.790  70.521  0.00  0.00    -0.003 A 
ATOM     19  C   UNL     1      -9.524   8.624  70.378  0.00  0.00    -0.007 A 
ATOM     20  C   UNL     1      -7.577   5.003  71.274  0.00  0.00    +0.213 C 
ATOM     21  C   UNL     1     -10.018   4.881  72.085  0.00  0.00    -0.025 C 
ENDROOT
BRANCH  17  22
ATOM     22  C   UNL     1     -11.226  11.840  69.355  0.00  0.00    +0.146 C 
ATOM     23  C   UNL     1     -11.245  12.127  67.906  0.00  0.00    +0.068 A 
ATOM     24  C   UNL     1     -11.262  13.448  67.475  0.00  0.00    -0.005 A 
ATOM     25  C   UNL     1     -11.475  13.379  66.105  0.00  0.00    +0.015 A 
ATOM     26  C   UNL     1     -11.817  12.080  65.759  0.00  0.00    +0.081 A 
ATOM     27  C   UNL     1     -11.691  11.680  64.433  0.00  0.00    +0.019 A 
ATOM     28  C   UNL     1     -11.844  12.654  63.454  0.00  0.00    +0.002 A 
ATOM     29  C   UNL     1     -11.981  13.979  63.819  0.00  0.00    +0.000 A 
ATOM     30  C   UNL     1     -11.611  14.336  65.108  0.00  0.00    +0.001 A 
ATOM     31  C   UNL     1     -10.332  14.370  68.198  0.00  0.00    +0.045 C 
ATOM     32  C   UNL     1     -11.029  15.674  68.574  0.00  0.00    +0.077 C 
ATOM     33  N   UNL     1     -11.721  15.460  69.755  0.00  0.00    -0.270 NA
ATOM     34  C   UNL     1     -11.686  16.379  70.818  0.00  0.00    +0.103 C 
ATOM     35  C   UNL     1     -12.468  15.667  71.924  0.00  0.00    +0.141 C 
ATOM     36  C   UNL     1     -12.012  14.273  71.972  0.00  0.00    +0.033 C 
ATOM     37  C   UNL     1     -12.641  13.401  70.754  0.00  0.00    +0.020 C 
ATOM     38  O   UNL     1     -13.824  15.871  71.831  0.00  0.00    -0.224 OA
ATOM     39  C   UNL     1     -12.888  14.678  69.770  0.00  0.00    +0.072 C 
ATOM     40  N   UNL     1     -11.820  11.395  66.918  0.00  0.00    -0.249 NA
ATOM     41  C   UNL     1     -11.159  13.102  70.133  0.00  0.00    +0.022 C 
BRANCH  35  42
ATOM     42  C   UNL     1     -11.996  16.288  73.220  0.00  0.00    +0.032 C 
ATOM     43  C   UNL     1     -12.404  15.486  74.423  0.00  0.00    +0.003 C 
ENDBRANCH  35  42
BRANCH  22  44
ATOM     44  C   UNL     1     -12.497  11.134  69.721  0.00  0.00    +0.325 C 
ATOM     45  O   UNL     1     -13.150  10.432  68.926  0.00  0.00    -0.249 OA
BRANCH  44  46
ATOM     46  O   UNL     1     -12.859  11.075  71.063  0.00  0.00    -0.444 OA
ATOM     47  C   UNL     1     -13.582   9.994  71.604  0.00  0.00    +0.256 C 
ENDBRANCH  44  46
ENDBRANCH  22  44
ENDBRANCH  17  22
BRANCH  16  48
ATOM     48  O   UNL     1      -8.421  12.019  68.596  0.00  0.00    -0.472 OA
ATOM     49  C   UNL     1      -7.518  12.099  67.496  0.00  0.00    +0.252 C 
ENDBRANCH  16  48
BRANCH  10  50
ATOM     50  C   UNL     1      -6.934   7.220  70.168  0.00  0.00    +0.350 C 
ATOM     51  O   UNL     1      -6.080   7.357  69.210  0.00  0.00    -0.247 OA
BRANCH  50  52
ATOM     52  O   UNL     1      -6.492   8.225  71.039  0.00  0.00    -0.443 OA
ATOM     53  C   UNL     1      -5.730   9.335  70.687  0.00  0.00    +0.256 C 
ENDBRANCH  50  52
ENDBRANCH  10  50
BRANCH   1  55
ATOM     54  C   UNL     1      -7.030   5.045  73.479  0.00  0.00    +0.001 C 
ATOM     55  C   UNL     1      -8.191   5.176  73.572  0.00  0.00    +0.009 C 
ENDBRANCH   1  55
BRANCH  20  56
ATOM     56  O   UNL     1      -8.457   3.972  70.521  0.00  0.00    -0.449 OA
BRANCH  56  57
ATOM     57  C   UNL     1      -8.105   2.650  70.748  0.00  0.00    +0.318 C 
ATOM     58  O   UNL     1      -6.881   2.389  70.946  0.00  0.00    -0.250 OA
ATOM     59  C   UNL     1      -9.064   1.517  70.660  0.00  0.00    +0.121 C 
ENDBRANCH  56  57
ENDBRANCH  20  56
TORSDOF 10
ENDMDL
MODEL 7
REMARK VINA RESULT:      -6.5      3.778     10.608
REMARK  Name = 
REMARK  10 active torsions:
REMARK  status: ('A' for Active; 'I' for Inactive)
REMARK    1  A    between atoms: C_2  and  C_3
REMARK    2  A    between atoms: C_13  and  C_14
REMARK    3  A    between atoms: C_14  and  C_15
REMARK    4  A    between atoms: C_15  and  O_17
REMARK    5  A    between atoms: C_24  and  C_26
REMARK    6  A    between atoms: C_40  and  O_41
REMARK    7  A    between atoms: C_48  and  C_50
REMARK    8  A    between atoms: C_50  and  O_52
REMARK    9  A    between atoms: C_54  and  O_55
REMARK   10  A    between atoms: O_55  and  C_56
REMARK                            x       y       z     vdW  Elec       q    Type
REMARK                         _______ _______ _______ _____ _____    ______ ____
ROOT
ATOM      1  C   UNL     1      -8.726   3.985  70.550  0.00  0.00    +0.072 C 
ATOM      2  C   UNL     1      -9.683   5.029  69.766  0.00  0.00    +0.070 C 
ATOM      3  N   UNL     1      -9.220   4.577  68.339  0.00  0.00    -0.269 NA
ATOM      4  C   UNL     1      -8.696   5.726  67.733  0.00  0.00    +0.073 C 
ATOM      5  C   UNL     1      -7.688   6.106  68.820  0.00  0.00    +0.024 C 
ATOM      6  C   UNL     1      -8.547   3.384  68.298  0.00  0.00    +0.099 C 
ATOM      7  C   UNL     1      -7.204   3.442  68.979  0.00  0.00    -0.013 C 
ATOM      8  C   UNL     1      -8.690   6.314  69.864  0.00  0.00    +0.055 C 
ATOM      9  C   UNL     1      -8.035   6.237  71.343  0.00  0.00    +0.120 C 
ATOM     10  C   UNL     1      -9.332   5.704  72.155  0.00  0.00    +0.268 C 
ATOM     11  O   UNL     1      -8.836   5.914  73.469  0.00  0.00    -0.209 OA
ATOM     12  N   UNL     1      -8.311   7.737  71.739  0.00  0.00    -0.304 N 
ATOM     13  C   UNL     1      -7.814   8.167  73.032  0.00  0.00    +0.112 C 
ATOM     14  C   UNL     1      -9.285   8.237  70.908  0.00  0.00    +0.047 A 
ATOM     15  C   UNL     1      -9.993   9.432  71.008  0.00  0.00    +0.051 A 
ATOM     16  C   UNL     1     -10.507   9.993  69.850  0.00  0.00    +0.137 A 
ATOM     17  C   UNL     1      -9.944   9.643  68.627  0.00  0.00    +0.026 A 
ATOM     18  C   UNL     1      -9.434   8.371  68.587  0.00  0.00    -0.003 A 
ATOM     19  C   UNL     1      -9.357   7.538  69.713  0.00  0.00    -0.007 A 
ATOM     20  C   UNL     1      -9.162   4.081  72.105  0.00  0.00    +0.213 C 
ATOM     21  C   UNL     1      -7.411   3.916  70.224  0.00  0.00    -0.025 C 
ENDROOT
BRANCH  17  22
ATOM     22  C   UNL     1      -9.486  10.765  67.750  0.00  0.00    +0.146 C 
ATOM     23  C   UNL     1      -8.128  10.537  67.214  0.00  0.00    +0.068 A 
ATOM     24  C   UNL     1      -7.165  11.529  67.361  0.00  0.00    -0.005 A 
ATOM     25  C   UNL     1      -6.087  11.103  66.597  0.00  0.00    +0.015 A 
ATOM     26  C   UNL     1      -6.474  10.017  65.824  0.00  0.00    +0.081 A 
ATOM     27  C   UNL     1      -5.495   9.187  65.290  0.00  0.00    +0.019 A 
ATOM     28  C   UNL     1      -4.259   9.756  65.005  0.00  0.00    +0.002 A 
ATOM     29  C   UNL     1      -4.004  11.062  65.372  0.00  0.00    +0.000 A 
ATOM     30  C   UNL     1      -4.840  11.644  66.314  0.00  0.00    +0.001 A 
ATOM     31  C   UNL     1      -7.115  12.180  68.706  0.00  0.00    +0.045 C 
ATOM     32  C   UNL     1      -7.026  13.699  68.582  0.00  0.00    +0.077 C 
ATOM     33  N   UNL     1      -8.311  14.186  68.404  0.00  0.00    -0.270 NA
ATOM     34  C   UNL     1      -8.788  15.307  69.104  0.00  0.00    +0.103 C 
ATOM     35  C   UNL     1     -10.259  15.381  68.689  0.00  0.00    +0.141 C 
ATOM     36  C   UNL     1     -10.813  14.023  68.752  0.00  0.00    +0.033 C 
ATOM     37  C   UNL     1     -10.340  13.130  67.480  0.00  0.00    +0.020 C 
ATOM     38  O   UNL     1     -10.445  16.071  67.514  0.00  0.00    -0.224 OA
ATOM     39  C   UNL     1      -8.987  13.994  67.187  0.00  0.00    +0.072 C 
ATOM     40  N   UNL     1      -7.772   9.818  66.119  0.00  0.00    -0.249 NA
ATOM     41  C   UNL     1      -9.556  12.072  68.448  0.00  0.00    +0.022 C 
BRANCH  35  42
ATOM     42  C   UNL     1     -10.954  16.150  69.790  0.00  0.00    +0.032 C 
ATOM     43  C   UNL     1     -12.244  15.505  70.214  0.00  0.00    +0.003 C 
ENDBRANCH  35  42
BRANCH  22  44
ATOM     44  C   UNL     1     -10.454  10.796  66.606  0.00  0.00    +0.325 C 
ATOM     45  O   UNL     1     -11.687  10.688  66.741  0.00  0.00    -0.249 OA
BRANCH  44  46
ATOM     46  O   UNL     1      -9.986  11.179  65.352  0.00  0.00    -0.444 OA
ATOM     47  C   UNL     1     -10.822  11.242  64.220  0.00  0.00    +0.256 C 
ENDBRANCH  44  46
ENDBRANCH  22  44
ENDBRANCH  17  22
BRANCH  16  48
ATOM     48  O   UNL     1     -11.570  10.857  69.782  0.00  0.00    -0.472 OA
ATOM     49  C   UNL     1     -12.438  10.979  70.906  0.00  0.00    +0.252 C 
ENDBRANCH  16  48
BRANCH  10  50
ATOM     50  C   UNL     1     -10.563   6.224  72.068  0.00  0.00    +0.350 C 
ATOM     51  O   UNL     1     -11.037   6.818  73.110  0.00  0.00    -0.247 OA
BRANCH  50  52
ATOM     52  O   UNL     1     -11.708   6.188  71.261  0.00  0.00    -0.443 OA
ATOM     53  C   UNL     1     -12.814   7.027  71.373  0.00  0.00    +0.256 C 
ENDBRANCH  50  52
ENDBRANCH  10  50
BRANCH   1  55
ATOM     54  C   UNL     1      -9.819   2.141  71.165  0.00  0.00    +0.001 C 
ATOM     55  C   UNL     1      -9.437   2.677  70.197  0.00  0.00    +0.009 C 
ENDBRANCH   1  55
BRANCH  20  56
ATOM     56  O   UNL     1      -7.689   4.111  72.589  0.00  0.00    -0.449 OA
BRANCH  56  57
ATOM     57  C   UNL     1      -7.351   3.073  73.444  0.00  0.00    +0.318 C 
ATOM     58  O   UNL     1      -8.103   2.858  74.441  0.00  0.00    -0.250 OA
ATOM     59  C   UNL     1      -6.101   2.276  73.317  0.00  0.00    +0.121 C 
ENDBRANCH  56  57
ENDBRANCH  20  56
TORSDOF 10
ENDMDL
MODEL 8
REMARK VINA RESULT:      -6.4      2.416      4.712
REMARK  Name = 
REMARK  10 active torsions:
REMARK  status: ('A' for Active; 'I' for Inactive)
REMARK    1  A    between atoms: C_2  and  C_3
REMARK    2  A    between atoms: C_13  and  C_14
REMARK    3  A    between atoms: C_14  and  C_15
REMARK    4  A    between atoms: C_15  and  O_17
REMARK    5  A    between atoms: C_24  and  C_26
REMARK    6  A    between atoms: C_40  and  O_41
REMARK    7  A    between atoms: C_48  and  C_50
REMARK    8  A    between atoms: C_50  and  O_52
REMARK    9  A    between atoms: C_54  and  O_55
REMARK   10  A    between atoms: O_55  and  C_56
REMARK                            x       y       z     vdW  Elec       q    Type
REMARK                         _______ _______ _______ _____ _____    ______ ____
ROOT
ATOM      1  C   UNL     1      -7.337  16.338  68.175  0.00  0.00    +0.072 C 
ATOM      2  C   UNL     1      -7.820  15.099  69.097  0.00  0.00    +0.070 C 
ATOM      3  N   UNL     1      -6.367  14.641  69.465  0.00  0.00    -0.269 NA
ATOM      4  C   UNL     1      -6.264  13.320  69.015  0.00  0.00    +0.073 C 
ATOM      5  C   UNL     1      -6.688  13.550  67.563  0.00  0.00    +0.024 C 
ATOM      6  C   UNL     1      -5.385  15.560  69.200  0.00  0.00    +0.099 C 
ATOM      7  C   UNL     1      -5.193  15.808  67.726  0.00  0.00    -0.013 C 
ATOM      8  C   UNL     1      -8.031  14.028  67.890  0.00  0.00    +0.055 C 
ATOM      9  C   UNL     1      -8.674  14.878  66.671  0.00  0.00    +0.120 C 
ATOM     10  C   UNL     1      -9.631  15.858  67.538  0.00  0.00    +0.268 C 
ATOM     11  O   UNL     1     -10.389  16.388  66.461  0.00  0.00    -0.209 OA
ATOM     12  N   UNL     1      -9.853  13.880  66.360  0.00  0.00    -0.304 N 
ATOM     13  C   UNL     1     -10.708  14.217  65.238  0.00  0.00    +0.112 C 
ATOM     14  C   UNL     1     -10.035  13.064  67.452  0.00  0.00    +0.047 A 
ATOM     15  C   UNL     1     -11.077  12.180  67.720  0.00  0.00    +0.051 A 
ATOM     16  C   UNL     1     -10.828  11.100  68.553  0.00  0.00    +0.137 A 
ATOM     17  C   UNL     1      -9.516  10.668  68.717  0.00  0.00    +0.026 A 
ATOM     18  C   UNL     1      -8.579  11.662  68.610  0.00  0.00    -0.003 A 
ATOM     19  C   UNL     1      -8.892  12.976  68.231  0.00  0.00    -0.007 A 
ATOM     20  C   UNL     1      -8.683  17.158  67.812  0.00  0.00    +0.213 C 
ATOM     21  C   UNL     1      -6.400  16.127  67.217  0.00  0.00    -0.025 C 
ENDROOT
BRANCH  17  22
ATOM     22  C   UNL     1      -9.246   9.220  68.454  0.00  0.00    +0.146 C 
ATOM     23  C   UNL     1      -9.600   8.367  69.608  0.00  0.00    +0.068 A 
ATOM     24  C   UNL     1      -8.661   7.469  70.102  0.00  0.00    -0.005 A 
ATOM     25  C   UNL     1      -9.350   6.699  71.030  0.00  0.00    +0.015 A 
ATOM     26  C   UNL     1     -10.708   6.960  70.923  0.00  0.00    +0.081 A 
ATOM     27  C   UNL     1     -11.544   6.622  71.982  0.00  0.00    +0.019 A 
ATOM     28  C   UNL     1     -11.169   5.545  72.775  0.00  0.00    +0.002 A 
ATOM     29  C   UNL     1      -9.945   4.939  72.575  0.00  0.00    +0.000 A 
ATOM     30  C   UNL     1      -8.991   5.633  71.844  0.00  0.00    +0.001 A 
ATOM     31  C   UNL     1      -7.269   8.001  70.228  0.00  0.00    +0.045 C 
ATOM     32  C   UNL     1      -6.247   7.012  69.674  0.00  0.00    +0.077 C 
ATOM     33  N   UNL     1      -6.183   7.194  68.301  0.00  0.00    -0.270 NA
ATOM     34  C   UNL     1      -4.960   7.252  67.613  0.00  0.00    +0.103 C 
ATOM     35  C   UNL     1      -5.378   7.590  66.180  0.00  0.00    +0.141 C 
ATOM     36  C   UNL     1      -6.386   8.656  66.245  0.00  0.00    +0.033 C 
ATOM     37  C   UNL     1      -7.835   8.076  66.696  0.00  0.00    +0.020 C 
ATOM     38  O   UNL     1      -5.705   6.475  65.446  0.00  0.00    -0.224 OA
ATOM     39  C   UNL     1      -7.237   6.772  67.474  0.00  0.00    +0.072 C 
ATOM     40  N   UNL     1     -10.818   7.863  69.931  0.00  0.00    -0.249 NA
ATOM     41  C   UNL     1      -7.837   8.989  68.051  0.00  0.00    +0.022 C 
BRANCH  35  42
ATOM     42  C   UNL     1      -4.164   8.224  65.540  0.00  0.00    +0.032 C 
ATOM     43  C   UNL     1      -4.416   9.642  65.111  0.00  0.00    +0.003 C 
ENDBRANCH  35  42
BRANCH  22  44
ATOM     44  C   UNL     1     -10.127   8.853  67.299  0.00  0.00    +0.325 C 
ATOM     45  O   UNL     1     -10.002   9.332  66.156  0.00  0.00    -0.249 OA
BRANCH  44  46
ATOM     46  O   UNL     1     -10.989   7.770  67.441  0.00  0.00    -0.444 OA
ATOM     47  C   UNL     1     -10.863   6.598  66.670  0.00  0.00    +0.256 C 
ENDBRANCH  44  46
ENDBRANCH  22  44
ENDBRANCH  17  22
BRANCH  16  48
ATOM     48  O   UNL     1     -11.768  10.418  69.282  0.00  0.00    -0.472 OA
ATOM     49  C   UNL     1     -12.265  10.995  70.486  0.00  0.00    +0.252 C 
ENDBRANCH  16  48
BRANCH  10  50
ATOM     50  C   UNL     1     -10.469  15.459  68.503  0.00  0.00    +0.350 C 
ATOM     51  O   UNL     1     -11.735  15.541  68.269  0.00  0.00    -0.247 OA
BRANCH  50  52
ATOM     52  O   UNL     1     -10.491  15.145  69.868  0.00  0.00    -0.443 OA
ATOM     53  C   UNL     1     -11.332  15.708  70.824  0.00  0.00    +0.256 C 
ENDBRANCH  50  52
ENDBRANCH  10  50
BRANCH   1  55
ATOM     54  C   UNL     1      -7.365  18.288  69.256  0.00  0.00    +0.001 C 
ATOM     55  C   UNL     1      -6.794  17.266  69.263  0.00  0.00    +0.009 C 
ENDBRANCH   1  55
BRANCH  20  56
ATOM     56  O   UNL     1      -8.274  17.309  66.324  0.00  0.00    -0.449 OA
BRANCH  56  57
ATOM     57  C   UNL     1      -8.124  18.623  65.906  0.00  0.00    +0.318 C 
ATOM     58  O   UNL     1      -7.088  18.919  65.241  0.00  0.00    -0.250 OA
ATOM     59  C   UNL     1      -9.053  19.720  66.293  0.00  0.00    +0.121 C 
ENDBRANCH  56  57
ENDBRANCH  20  56
TORSDOF 10
ENDMDL
MODEL 9
REMARK VINA RESULT:      -6.4      2.618      9.341
REMARK  Name = 
REMARK  10 active torsions:
REMARK  status: ('A' for Active; 'I' for Inactive)
REMARK    1  A    between atoms: C_2  and  C_3
REMARK    2  A    between atoms: C_13  and  C_14
REMARK    3  A    between atoms: C_14  and  C_15
REMARK    4  A    between atoms: C_15  and  O_17
REMARK    5  A    between atoms: C_24  and  C_26
REMARK    6  A    between atoms: C_40  and  O_41
REMARK    7  A    between atoms: C_48  and  C_50
REMARK    8  A    between atoms: C_50  and  O_52
REMARK    9  A    between atoms: C_54  and  O_55
REMARK   10  A    between atoms: O_55  and  C_56
REMARK                            x       y       z     vdW  Elec       q    Type
REMARK                         _______ _______ _______ _____ _____    ______ ____
ROOT
ATOM      1  C   UNL     1      -4.437   7.685  63.261  0.00  0.00    +0.072 C 
ATOM      2  C   UNL     1      -5.226   9.094  63.374  0.00  0.00    +0.070 C 
ATOM      3  N   UNL     1      -4.012   9.870  63.989  0.00  0.00    -0.269 NA
ATOM      4  C   UNL     1      -4.461  10.351  65.224  0.00  0.00    +0.073 C 
ATOM      5  C   UNL     1      -4.945   9.025  65.814  0.00  0.00    +0.024 C 
ATOM      6  C   UNL     1      -2.801   9.240  63.871  0.00  0.00    +0.099 C 
ATOM      7  C   UNL     1      -2.714   7.974  64.685  0.00  0.00    -0.013 C 
ATOM      8  C   UNL     1      -5.965   8.789  64.792  0.00  0.00    +0.055 C 
ATOM      9  C   UNL     1      -6.393   7.229  64.727  0.00  0.00    +0.120 C 
ATOM     10  C   UNL     1      -6.805   7.157  63.161  0.00  0.00    +0.268 C 
ATOM     11  O   UNL     1      -7.440   5.887  63.187  0.00  0.00    -0.209 OA
ATOM     12  N   UNL     1      -7.886   7.434  65.187  0.00  0.00    -0.304 N 
ATOM     13  C   UNL     1      -8.687   6.235  65.341  0.00  0.00    +0.112 C 
ATOM     14  C   UNL     1      -8.221   8.755  65.009  0.00  0.00    +0.047 A 
ATOM     15  C   UNL     1      -9.475   9.358  65.080  0.00  0.00    +0.051 A 
ATOM     16  C   UNL     1      -9.542  10.704  65.403  0.00  0.00    +0.137 A 
ATOM     17  C   UNL     1      -8.474  11.288  66.075  0.00  0.00    +0.026 A 
ATOM     18  C   UNL     1      -7.256  10.727  65.791  0.00  0.00    -0.003 A 
ATOM     19  C   UNL     1      -7.106   9.577  65.000  0.00  0.00    -0.007 A 
ATOM     20  C   UNL     1      -5.418   6.704  62.430  0.00  0.00    +0.213 C 
ATOM     21  C   UNL     1      -3.770   7.209  64.343  0.00  0.00    -0.025 C 
ENDROOT
BRANCH  17  22
ATOM     22  C   UNL     1      -8.793  12.017  67.342  0.00  0.00    +0.146 C 
ATOM     23  C   UNL     1      -9.670  11.230  68.234  0.00  0.00    +0.068 A 
ATOM     24  C   UNL     1     -10.830  11.812  68.732  0.00  0.00    -0.005 A 
ATOM     25  C   UNL     1     -11.314  10.911  69.670  0.00  0.00    +0.015 A 
ATOM     26  C   UNL     1     -10.355   9.936  69.906  0.00  0.00    +0.081 A 
ATOM     27  C   UNL     1     -10.744   8.735  70.488  0.00  0.00    +0.019 A 
ATOM     28  C   UNL     1     -11.839   8.762  71.343  0.00  0.00    +0.002 A 
ATOM     29  C   UNL     1     -12.569   9.925  71.485  0.00  0.00    +0.000 A 
ATOM     30  C   UNL     1     -12.413  10.910  70.519  0.00  0.00    +0.001 A 
ATOM     31  C   UNL     1     -11.629  12.599  67.741  0.00  0.00    +0.045 C 
ATOM     32  C   UNL     1     -12.062  13.941  68.322  0.00  0.00    +0.077 C 
ATOM     33  N   UNL     1     -11.010  14.830  68.166  0.00  0.00    -0.270 NA
ATOM     34  C   UNL     1     -11.204  16.141  67.699  0.00  0.00    +0.103 C 
ATOM     35  C   UNL     1      -9.779  16.682  67.568  0.00  0.00    +0.141 C 
ATOM     36  C   UNL     1      -8.962  15.647  66.923  0.00  0.00    +0.033 C 
ATOM     37  C   UNL     1      -8.580  14.459  67.963  0.00  0.00    +0.020 C 
ATOM     38  O   UNL     1      -9.299  17.203  68.746  0.00  0.00    -0.224 OA
ATOM     39  C   UNL     1      -9.852  14.714  68.953  0.00  0.00    +0.072 C 
ATOM     40  N   UNL     1      -9.311  10.272  69.126  0.00  0.00    -0.249 NA
ATOM     41  C   UNL     1      -9.387  13.349  67.074  0.00  0.00    +0.022 C 
BRANCH  35  42
ATOM     42  C   UNL     1      -9.862  17.810  66.565  0.00  0.00    +0.032 C 
ATOM     43  C   UNL     1     -10.550  19.024  67.122  0.00  0.00    +0.003 C 
ENDBRANCH  35  42
BRANCH  22  44
ATOM     44  C   UNL     1      -7.475  12.223  68.026  0.00  0.00    +0.325 C 
ATOM     45  O   UNL     1      -7.185  11.724  69.130  0.00  0.00    -0.249 OA
BRANCH  44  46
ATOM     46  O   UNL     1      -6.442  12.817  67.308  0.00  0.00    -0.444 OA
ATOM     47  C   UNL     1      -5.153  12.999  67.848  0.00  0.00    +0.256 C 
ENDBRANCH  44  46
ENDBRANCH  22  44
ENDBRANCH  17  22
BRANCH  16  48
ATOM     48  O   UNL     1     -10.571  11.554  65.083  0.00  0.00    -0.472 OA
ATOM     49  C   UNL     1     -10.617  12.128  63.780  0.00  0.00    +0.252 C 
ENDBRANCH  16  48
BRANCH  10  50
ATOM     50  C   UNL     1      -7.606   8.029  62.535  0.00  0.00    +0.350 C 
ATOM     51  O   UNL     1      -8.732   7.590  62.082  0.00  0.00    -0.247 OA
BRANCH  50  52
ATOM     52  O   UNL     1      -7.591   9.307  61.961  0.00  0.00    -0.443 OA
ATOM     53  C   UNL     1      -8.685   9.970  61.412  0.00  0.00    +0.256 C 
ENDBRANCH  50  52
ENDBRANCH  10  50
BRANCH   1  55
ATOM     54  C   UNL     1      -3.953   7.847  61.091  0.00  0.00    +0.001 C 
ATOM     55  C   UNL     1      -3.460   8.033  62.137  0.00  0.00    +0.009 C 
ENDBRANCH   1  55
BRANCH  20  56
ATOM     56  O   UNL     1      -5.168   5.518  63.398  0.00  0.00    -0.449 OA
BRANCH  56  57
ATOM     57  C   UNL     1      -4.740   4.356  62.774  0.00  0.00    +0.318 C 
ATOM     58  O   UNL     1      -5.359   3.282  63.033  0.00  0.00    -0.250 OA
ATOM     59  C   UNL     1      -3.530   4.284  61.910  0.00  0.00    +0.121 C 
ENDBRANCH  56  57
ENDBRANCH  20  56
TORSDOF 10
ENDMDL
