MODEL 1
REMARK VINA RESULT:      -6.3      0.000      0.000
REMARK  Name = 
REMARK  4 active torsions:
REMARK  status: ('A' for Active; 'I' for Inactive)
REMARK    1  A    between atoms: S_2  and  C_3
REMARK    2  A    between atoms: N_9  and  C_10
REMARK    3  A    between atoms: C_10  and  C_11
REMARK    4  A    between atoms: C_11  and  C_12
REMARK                            x       y       z     vdW  Elec       q    Type
REMARK                         _______ _______ _______ _____ _____    ______ ____
ROOT
ATOM      1  C   UNL     1     -10.215  17.586  67.354  0.00  0.00    +0.027 A 
ATOM      2  C   UNL     1     -10.660  16.280  67.185  0.00  0.00    +0.021 A 
ATOM      3  C   UNL     1     -11.024  15.483  68.266  0.00  0.00    +0.058 A 
ATOM      4  N   UNL     1     -11.335  14.095  68.087  0.00  0.00    -0.286 N 
ATOM      5  C   UNL     1     -11.471  13.252  69.234  0.00  0.00    +0.058 A 
ATOM      6  C   UNL     1     -12.272  13.710  70.273  0.00  0.00    +0.043 A 
ATOM      7  S   UNL     1     -12.068  15.433  70.748  0.00  0.00    -0.084 S 
ATOM      8  C   UNL     1     -12.908  12.832  71.098  0.00  0.00    +0.008 A 
ATOM      9  C   UNL     1     -12.638  11.479  70.934  0.00  0.00    +0.001 A 
ATOM     10  C   UNL     1     -11.678  11.064  70.050  0.00  0.00    +0.001 A 
ATOM     11  C   UNL     1     -10.933  11.990  69.328  0.00  0.00    +0.015 A 
ATOM     12  C   UNL     1     -10.911  16.064  69.524  0.00  0.00    +0.043 A 
ATOM     13  C   UNL     1     -10.145  17.196  69.752  0.00  0.00    +0.008 A 
ATOM     14  C   UNL     1      -9.675  17.835  68.611  0.00  0.00    +0.007 A 
ENDROOT
BRANCH   1  16
ATOM     15  C   UNL     1     -10.620  19.567  65.731  0.00  0.00    +0.074 C 
ATOM     16  S   UNL     1     -10.473  18.867  66.154  0.00  0.00    -0.113 S 
ENDBRANCH   1  16
BRANCH   4  17
ATOM     17  C   UNL     1     -10.847  13.502  66.845  0.00  0.00    +0.097 C 
BRANCH  17  18
ATOM     18  C   UNL     1     -11.932  12.940  66.059  0.00  0.00    +0.038 C 
BRANCH  18  19
ATOM     19  C   UNL     1     -11.423  11.609  65.216  0.00  0.00    +0.059 C 
ATOM     20  N   UNL     1     -10.858  12.509  64.030  0.00  0.00    -0.273 NA
ATOM     21  C   UNL     1     -12.108  12.798  63.326  0.00  0.00    +0.090 C 
ATOM     22  C   UNL     1     -10.150  11.589  63.169  0.00  0.00    +0.072 C 
ATOM     23  C   UNL     1      -9.703  10.334  63.818  0.00  0.00    +0.017 C 
ATOM     24  C   UNL     1      -9.182  10.461  65.205  0.00  0.00    +0.003 C 
ATOM     25  C   UNL     1      -9.930  11.523  65.935  0.00  0.00    +0.016 C 
ENDBRANCH  18  19
ENDBRANCH  17  18
ENDBRANCH   4  17
TORSDOF 4
ENDMDL
MODEL 2
REMARK VINA RESULT:      -6.2      1.762      5.327
REMARK  Name = 
REMARK  4 active torsions:
REMARK  status: ('A' for Active; 'I' for Inactive)
REMARK    1  A    between atoms: S_2  and  C_3
REMARK    2  A    between atoms: N_9  and  C_10
REMARK    3  A    between atoms: C_10  and  C_11
REMARK    4  A    between atoms: C_11  and  C_12
REMARK                            x       y       z     vdW  Elec       q    Type
REMARK                         _______ _______ _______ _____ _____    ______ ____
ROOT
ATOM      1  C   UNL     1     -13.018  11.062  71.437  0.00  0.00    +0.027 A 
ATOM      2  C   UNL     1     -12.338  11.519  70.314  0.00  0.00    +0.021 A 
ATOM      3  C   UNL     1     -12.026  12.864  70.142  0.00  0.00    +0.058 A 
ATOM      4  N   UNL     1     -11.460  13.340  68.914  0.00  0.00    -0.286 N 
ATOM      5  C   UNL     1     -11.372  14.748  68.679  0.00  0.00    +0.058 A 
ATOM      6  C   UNL     1     -10.839  15.533  69.694  0.00  0.00    +0.043 A 
ATOM      7  S   UNL     1     -11.406  15.183  71.365  0.00  0.00    -0.084 S 
ATOM      8  C   UNL     1     -10.207  16.705  69.406  0.00  0.00    +0.008 A 
ATOM      9  C   UNL     1     -10.215  17.135  68.084  0.00  0.00    +0.001 A 
ATOM     10  C   UNL     1     -10.934  16.457  67.136  0.00  0.00    +0.001 A 
ATOM     11  C   UNL     1     -11.697  15.349  67.486  0.00  0.00    +0.015 A 
ATOM     12  C   UNL     1     -12.437  13.725  71.154  0.00  0.00    +0.043 A 
ATOM     13  C   UNL     1     -13.411  13.374  72.076  0.00  0.00    +0.008 A 
ATOM     14  C   UNL     1     -13.790  12.036  72.060  0.00  0.00    +0.007 A 
ENDROOT
BRANCH   1  16
ATOM     15  C   UNL     1     -12.753   8.630  72.296  0.00  0.00    +0.074 C 
ATOM     16  S   UNL     1     -12.788   9.443  72.123  0.00  0.00    -0.113 S 
ENDBRANCH   1  16
BRANCH   4  17
ATOM     17  C   UNL     1     -11.632  12.455  67.765  0.00  0.00    +0.097 C 
BRANCH  17  18
ATOM     18  C   UNL     1     -10.354  12.007  67.240  0.00  0.00    +0.038 C 
BRANCH  18  19
ATOM     19  C   UNL     1     -10.244  12.310  65.616  0.00  0.00    +0.059 C 
ATOM     20  N   UNL     1     -10.105  10.761  65.279  0.00  0.00    -0.273 NA
ATOM     21  C   UNL     1      -8.691  10.567  65.603  0.00  0.00    +0.090 C 
ATOM     22  C   UNL     1     -10.171  10.684  63.838  0.00  0.00    +0.072 C 
ATOM     23  C   UNL     1     -10.837  11.830  63.176  0.00  0.00    +0.017 C 
ATOM     24  C   UNL     1     -12.044  12.372  63.856  0.00  0.00    +0.003 C 
ATOM     25  C   UNL     1     -11.879  12.280  65.334  0.00  0.00    +0.016 C 
ENDBRANCH  18  19
ENDBRANCH  17  18
ENDBRANCH   4  17
TORSDOF 4
ENDMDL
MODEL 3
REMARK VINA RESULT:      -6.1      2.906      7.528
REMARK  Name = 
REMARK  4 active torsions:
REMARK  status: ('A' for Active; 'I' for Inactive)
REMARK    1  A    between atoms: S_2  and  C_3
REMARK    2  A    between atoms: N_9  and  C_10
REMARK    3  A    between atoms: C_10  and  C_11
REMARK    4  A    between atoms: C_11  and  C_12
REMARK                            x       y       z     vdW  Elec       q    Type
REMARK                         _______ _______ _______ _____ _____    ______ ____
ROOT
ATOM      1  C   UNL     1     -11.368  10.217  70.383  0.00  0.00    +0.027 A 
ATOM      2  C   UNL     1     -11.672  11.530  70.045  0.00  0.00    +0.021 A 
ATOM      3  C   UNL     1     -11.285  12.083  68.827  0.00  0.00    +0.058 A 
ATOM      4  N   UNL     1     -11.474  13.478  68.556  0.00  0.00    -0.286 N 
ATOM      5  C   UNL     1     -10.857  14.061  67.405  0.00  0.00    +0.058 A 
ATOM      6  C   UNL     1     -11.006  13.395  66.195  0.00  0.00    +0.043 A 
ATOM      7  S   UNL     1     -10.783  11.611  66.223  0.00  0.00    -0.084 S 
ATOM      8  C   UNL     1     -10.975  14.082  65.018  0.00  0.00    +0.008 A 
ATOM      9  C   UNL     1     -10.679  15.439  65.068  0.00  0.00    +0.001 A 
ATOM     10  C   UNL     1     -10.320  16.029  66.250  0.00  0.00    +0.001 A 
ATOM     11  C   UNL     1     -10.209  15.273  67.413  0.00  0.00    +0.015 A 
ATOM     12  C   UNL     1     -10.573  11.249  67.973  0.00  0.00    +0.043 A 
ATOM     13  C   UNL     1      -9.948  10.094  68.414  0.00  0.00    +0.008 A 
ATOM     14  C   UNL     1     -10.262   9.707  69.712  0.00  0.00    +0.007 A 
ENDROOT
BRANCH   1  16
ATOM     15  C   UNL     1     -12.960   8.898  71.947  0.00  0.00    +0.074 C 
ATOM     16  S   UNL     1     -12.392   9.218  71.431  0.00  0.00    -0.113 S 
ENDBRANCH   1  16
BRANCH   4  17
ATOM     17  C   UNL     1     -11.680  14.318  69.733  0.00  0.00    +0.097 C 
BRANCH  17  18
ATOM     18  C   UNL     1     -13.093  14.521  70.004  0.00  0.00    +0.038 C 
BRANCH  18  19
ATOM     19  C   UNL     1     -13.308  15.403  71.389  0.00  0.00    +0.059 C 
ATOM     20  N   UNL     1     -12.844  14.184  72.302  0.00  0.00    -0.273 NA
ATOM     21  C   UNL     1     -14.077  13.396  72.303  0.00  0.00    +0.090 C 
ATOM     22  C   UNL     1     -12.752  14.732  73.636  0.00  0.00    +0.072 C 
ATOM     23  C   UNL     1     -12.573  16.201  73.704  0.00  0.00    +0.017 C 
ATOM     24  C   UNL     1     -11.667  16.801  72.688  0.00  0.00    +0.003 C 
ATOM     25  C   UNL     1     -11.786  16.062  71.400  0.00  0.00    +0.016 C 
ENDBRANCH  18  19
ENDBRANCH  17  18
ENDBRANCH   4  17
TORSDOF 4
ENDMDL
MODEL 4
REMARK VINA RESULT:      -6.0      3.496      6.840
REMARK  Name = 
REMARK  4 active torsions:
REMARK  status: ('A' for Active; 'I' for Inactive)
REMARK    1  A    between atoms: S_2  and  C_3
REMARK    2  A    between atoms: N_9  and  C_10
REMARK    3  A    between atoms: C_10  and  C_11
REMARK    4  A    between atoms: C_11  and  C_12
REMARK                            x       y       z     vdW  Elec       q    Type
REMARK                         _______ _______ _______ _____ _____    ______ ____
ROOT
ATOM      1  C   UNL     1     -11.150  13.150  64.851  0.00  0.00    +0.027 A 
ATOM      2  C   UNL     1     -10.943  12.247  65.887  0.00  0.00    +0.021 A 
ATOM      3  C   UNL     1     -10.415  10.979  65.661  0.00  0.00    +0.058 A 
ATOM      4  N   UNL     1     -10.346  10.009  66.714  0.00  0.00    -0.286 N 
ATOM      5  C   UNL     1     -10.025   8.651  66.399  0.00  0.00    +0.058 A 
ATOM      6  C   UNL     1      -8.926   8.428  65.579  0.00  0.00    +0.043 A 
ATOM      7  S   UNL     1      -8.769   9.489  64.135  0.00  0.00    -0.084 S 
ATOM      8  C   UNL     1      -8.217   7.269  65.671  0.00  0.00    +0.008 A 
ATOM      9  C   UNL     1      -8.696   6.283  66.525  0.00  0.00    +0.001 A 
ATOM     10  C   UNL     1      -9.901   6.437  67.157  0.00  0.00    +0.001 A 
ATOM     11  C   UNL     1     -10.681   7.564  66.928  0.00  0.00    +0.015 A 
ATOM     12  C   UNL     1     -10.114  10.666  64.340  0.00  0.00    +0.043 A 
ATOM     13  C   UNL     1     -10.637  11.376  63.271  0.00  0.00    +0.008 A 
ATOM     14  C   UNL     1     -11.302  12.550  63.607  0.00  0.00    +0.007 A 
ENDROOT
BRANCH   1  16
ATOM     15  C   UNL     1     -10.877  15.722  65.039  0.00  0.00    +0.074 C 
ATOM     16  S   UNL     1     -11.052  14.909  65.057  0.00  0.00    -0.113 S 
ENDBRANCH   1  16
BRANCH   4  17
ATOM     17  C   UNL     1     -11.219  10.268  67.856  0.00  0.00    +0.097 C 
BRANCH  17  18
ATOM     18  C   UNL     1     -10.485  10.218  69.110  0.00  0.00    +0.038 C 
BRANCH  18  19
ATOM     19  C   UNL     1     -11.089   9.036  70.100  0.00  0.00    +0.059 C 
ATOM     20  N   UNL     1      -9.892   9.215  71.135  0.00  0.00    -0.273 NA
ATOM     21  C   UNL     1      -8.850   8.461  70.436  0.00  0.00    +0.090 C 
ATOM     22  C   UNL     1     -10.251   8.392  72.267  0.00  0.00    +0.072 C 
ATOM     23  C   UNL     1     -11.698   8.099  72.399  0.00  0.00    +0.017 C 
ATOM     24  C   UNL     1     -12.626   9.217  72.085  0.00  0.00    +0.003 C 
ATOM     25  C   UNL     1     -12.070  10.045  70.978  0.00  0.00    +0.016 C 
ENDBRANCH  18  19
ENDBRANCH  17  18
ENDBRANCH   4  17
TORSDOF 4
ENDMDL
MODEL 5
REMARK VINA RESULT:      -6.0      3.779      5.193
REMARK  Name = 
REMARK  4 active torsions:
REMARK  status: ('A' for Active; 'I' for Inactive)
REMARK    1  A    between atoms: S_2  and  C_3
REMARK    2  A    between atoms: N_9  and  C_10
REMARK    3  A    between atoms: C_10  and  C_11
REMARK    4  A    between atoms: C_11  and  C_12
REMARK                            x       y       z     vdW  Elec       q    Type
REMARK                         _______ _______ _______ _____ _____    ______ ____
ROOT
ATOM      1  C   UNL     1     -11.763  13.233  67.668  0.00  0.00    +0.027 A 
ATOM      2  C   UNL     1     -11.360  11.916  67.859  0.00  0.00    +0.021 A 
ATOM      3  C   UNL     1     -11.479  11.285  69.094  0.00  0.00    +0.058 A 
ATOM      4  N   UNL     1     -10.924   9.981  69.313  0.00  0.00    -0.286 N 
ATOM      5  C   UNL     1     -10.851   9.463  70.644  0.00  0.00    +0.058 A 
ATOM      6  C   UNL     1     -11.997   9.545  71.425  0.00  0.00    +0.043 A 
ATOM      7  S   UNL     1     -12.895  11.103  71.378  0.00  0.00    -0.084 S 
ATOM      8  C   UNL     1     -12.225   8.640  72.417  0.00  0.00    +0.008 A 
ATOM      9  C   UNL     1     -11.227   7.712  72.690  0.00  0.00    +0.001 A 
ATOM     10  C   UNL     1     -10.016   7.788  72.055  0.00  0.00    +0.001 A 
ATOM     11  C   UNL     1      -9.751   8.815  71.157  0.00  0.00    +0.015 A 
ATOM     12  C   UNL     1     -12.016  12.047  70.125  0.00  0.00    +0.043 A 
ATOM     13  C   UNL     1     -12.079  13.431  70.070  0.00  0.00    +0.008 A 
ATOM     14  C   UNL     1     -11.775  13.990  68.834  0.00  0.00    +0.007 A 
ENDROOT
BRANCH   1  16
ATOM     15  C   UNL     1     -12.559  14.019  65.329  0.00  0.00    +0.074 C 
ATOM     16  S   UNL     1     -12.378  13.849  66.122  0.00  0.00    -0.113 S 
ENDBRANCH   1  16
BRANCH   4  17
ATOM     17  C   UNL     1      -9.904   9.570  68.352  0.00  0.00    +0.097 C 
BRANCH  17  18
ATOM     18  C   UNL     1     -10.357   8.456  67.537  0.00  0.00    +0.038 C 
BRANCH  18  19
ATOM     19  C   UNL     1      -9.336   7.161  67.686  0.00  0.00    +0.059 C 
ATOM     20  N   UNL     1     -10.530   6.126  67.490  0.00  0.00    -0.273 NA
ATOM     21  C   UNL     1     -11.105   6.159  68.836  0.00  0.00    +0.090 C 
ATOM     22  C   UNL     1      -9.891   4.834  67.390  0.00  0.00    +0.072 C 
ATOM     23  C   UNL     1      -8.470   4.864  66.972  0.00  0.00    +0.017 C 
ATOM     24  C   UNL     1      -8.116   5.850  65.917  0.00  0.00    +0.003 C 
ATOM     25  C   UNL     1      -8.934   7.085  66.078  0.00  0.00    +0.016 C 
ENDBRANCH  18  19
ENDBRANCH  17  18
ENDBRANCH   4  17
TORSDOF 4
ENDMDL
MODEL 6
REMARK VINA RESULT:      -6.0      3.277      6.484
REMARK  Name = 
REMARK  4 active torsions:
REMARK  status: ('A' for Active; 'I' for Inactive)
REMARK    1  A    between atoms: S_2  and  C_3
REMARK    2  A    between atoms: N_9  and  C_10
REMARK    3  A    between atoms: C_10  and  C_11
REMARK    4  A    between atoms: C_11  and  C_12
REMARK                            x       y       z     vdW  Elec       q    Type
REMARK                         _______ _______ _______ _____ _____    ______ ____
ROOT
ATOM      1  C   UNL     1     -11.838   9.241  71.448  0.00  0.00    +0.027 A 
ATOM      2  C   UNL     1     -11.316   9.620  70.217  0.00  0.00    +0.021 A 
ATOM      3  C   UNL     1     -11.518  10.894  69.695  0.00  0.00    +0.058 A 
ATOM      4  N   UNL     1     -11.102  11.221  68.363  0.00  0.00    -0.286 N 
ATOM      5  C   UNL     1     -11.532  12.451  67.774  0.00  0.00    +0.058 A 
ATOM      6  C   UNL     1     -11.387  13.607  68.532  0.00  0.00    +0.043 A 
ATOM      7  S   UNL     1     -11.873  13.504  70.260  0.00  0.00    -0.084 S 
ATOM      8  C   UNL     1     -11.221  14.816  67.927  0.00  0.00    +0.008 A 
ATOM      9  C   UNL     1     -11.316  14.865  66.541  0.00  0.00    +0.001 A 
ATOM     10  C   UNL     1     -11.677  13.753  65.830  0.00  0.00    +0.001 A 
ATOM     11  C   UNL     1     -11.992  12.566  66.483  0.00  0.00    +0.015 A 
ATOM     12  C   UNL     1     -12.275  11.763  70.472  0.00  0.00    +0.043 A 
ATOM     13  C   UNL     1     -13.098  11.319  71.495  0.00  0.00    +0.008 A 
ATOM     14  C   UNL     1     -12.950   9.980  71.837  0.00  0.00    +0.007 A 
ENDROOT
BRANCH   1  16
ATOM     15  C   UNL     1     -10.856   7.430  73.022  0.00  0.00    +0.074 C 
ATOM     16  S   UNL     1     -11.061   8.054  72.512  0.00  0.00    -0.113 S 
ENDBRANCH   1  16
BRANCH   4  17
ATOM     17  C   UNL     1     -10.870  10.077  67.485  0.00  0.00    +0.097 C 
BRANCH  17  18
ATOM     18  C   UNL     1      -9.481  10.000  67.065  0.00  0.00    +0.038 C 
BRANCH  18  19
ATOM     19  C   UNL     1      -9.044   8.433  66.755  0.00  0.00    +0.059 C 
ATOM     20  N   UNL     1      -8.664   8.179  68.280  0.00  0.00    -0.273 NA
ATOM     21  C   UNL     1      -7.345   8.814  68.312  0.00  0.00    +0.090 C 
ATOM     22  C   UNL     1      -8.395   6.762  68.367  0.00  0.00    +0.072 C 
ATOM     23  C   UNL     1      -9.018   5.937  67.305  0.00  0.00    +0.017 C 
ATOM     24  C   UNL     1     -10.398   6.316  66.902  0.00  0.00    +0.003 C 
ATOM     25  C   UNL     1     -10.560   7.796  66.971  0.00  0.00    +0.016 C 
ENDBRANCH  18  19
ENDBRANCH  17  18
ENDBRANCH   4  17
TORSDOF 4
ENDMDL
MODEL 7
REMARK VINA RESULT:      -5.9      2.872      5.910
REMARK  Name = 
REMARK  4 active torsions:
REMARK  status: ('A' for Active; 'I' for Inactive)
REMARK    1  A    between atoms: S_2  and  C_3
REMARK    2  A    between atoms: N_9  and  C_10
REMARK    3  A    between atoms: C_10  and  C_11
REMARK    4  A    between atoms: C_11  and  C_12
REMARK                            x       y       z     vdW  Elec       q    Type
REMARK                         _______ _______ _______ _____ _____    ______ ____
ROOT
ATOM      1  C   UNL     1     -12.519  15.015  71.370  0.00  0.00    +0.027 A 
ATOM      2  C   UNL     1     -12.251  13.701  71.006  0.00  0.00    +0.021 A 
ATOM      3  C   UNL     1     -11.507  13.391  69.872  0.00  0.00    +0.058 A 
ATOM      4  N   UNL     1     -11.366  12.034  69.429  0.00  0.00    -0.286 N 
ATOM      5  C   UNL     1     -10.803  11.770  68.141  0.00  0.00    +0.058 A 
ATOM      6  C   UNL     1      -9.619  12.420  67.816  0.00  0.00    +0.043 A 
ATOM      7  S   UNL     1      -9.520  14.169  68.227  0.00  0.00    -0.084 S 
ATOM      8  C   UNL     1      -8.739  11.861  66.939  0.00  0.00    +0.008 A 
ATOM      9  C   UNL     1      -9.119  10.686  66.303  0.00  0.00    +0.001 A 
ATOM     10  C   UNL     1     -10.380  10.179  66.472  0.00  0.00    +0.001 A 
ATOM     11  C   UNL     1     -11.312  10.852  67.253  0.00  0.00    +0.015 A 
ATOM     12  C   UNL     1     -11.052  14.469  69.121  0.00  0.00    +0.043 A 
ATOM     13  C   UNL     1     -11.596  15.738  69.241  0.00  0.00    +0.008 A 
ATOM     14  C   UNL     1     -12.469  15.912  70.308  0.00  0.00    +0.007 A 
ENDROOT
BRANCH   1  16
ATOM     15  C   UNL     1     -12.716  15.652  73.875  0.00  0.00    +0.074 C 
ATOM     16  S   UNL     1     -12.727  15.538  73.052  0.00  0.00    -0.113 S 
ENDBRANCH   1  16
BRANCH   4  17
ATOM     17  C   UNL     1     -12.359  11.102  69.956  0.00  0.00    +0.097 C 
BRANCH  17  18
ATOM     18  C   UNL     1     -11.821  10.311  71.050  0.00  0.00    +0.038 C 
BRANCH  18  19
ATOM     19  C   UNL     1     -11.658   8.725  70.607  0.00  0.00    +0.059 C 
ATOM     20  N   UNL     1     -10.329   8.564  71.469  0.00  0.00    -0.273 NA
ATOM     21  C   UNL     1      -9.369   9.188  70.558  0.00  0.00    +0.090 C 
ATOM     22  C   UNL     1     -10.023   7.152  71.423  0.00  0.00    +0.072 C 
ATOM     23  C   UNL     1     -11.172   6.267  71.119  0.00  0.00    +0.017 C 
ATOM     24  C   UNL     1     -12.468   6.633  71.750  0.00  0.00    +0.003 C 
ATOM     25  C   UNL     1     -12.593   8.116  71.834  0.00  0.00    +0.016 C 
ENDBRANCH  18  19
ENDBRANCH  17  18
ENDBRANCH   4  17
TORSDOF 4
ENDMDL
MODEL 8
REMARK VINA RESULT:      -5.9      3.091      4.673
REMARK  Name = 
REMARK  4 active torsions:
REMARK  status: ('A' for Active; 'I' for Inactive)
REMARK    1  A    between atoms: S_2  and  C_3
REMARK    2  A    between atoms: N_9  and  C_10
REMARK    3  A    between atoms: C_10  and  C_11
REMARK    4  A    between atoms: C_11  and  C_12
REMARK                            x       y       z     vdW  Elec       q    Type
REMARK                         _______ _______ _______ _____ _____    ______ ____
ROOT
ATOM      1  C   UNL     1     -11.653  13.198  68.289  0.00  0.00    +0.027 A 
ATOM      2  C   UNL     1     -11.053  11.955  68.452  0.00  0.00    +0.021 A 
ATOM      3  C   UNL     1     -11.276  11.175  69.582  0.00  0.00    +0.058 A 
ATOM      4  N   UNL     1     -10.535   9.967  69.804  0.00  0.00    -0.286 N 
ATOM      5  C   UNL     1     -10.612   9.318  71.076  0.00  0.00    +0.058 A 
ATOM      6  C   UNL     1     -11.877   9.115  71.614  0.00  0.00    +0.043 A 
ATOM      7  S   UNL     1     -13.027  10.494  71.512  0.00  0.00    -0.084 S 
ATOM      8  C   UNL     1     -12.110   8.076  72.463  0.00  0.00    +0.008 A 
ATOM      9  C   UNL     1     -11.022   7.305  72.856  0.00  0.00    +0.001 A 
ATOM     10  C   UNL     1      -9.751   7.657  72.488  0.00  0.00    +0.001 A 
ATOM     11  C   UNL     1      -9.524   8.811  71.746  0.00  0.00    +0.015 A 
ATOM     12  C   UNL     1     -12.127  11.711  70.542  0.00  0.00    +0.043 A 
ATOM     13  C   UNL     1     -12.438  13.061  70.586  0.00  0.00    +0.008 A 
ATOM     14  C   UNL     1     -12.022  13.803  69.486  0.00  0.00    +0.007 A 
ENDROOT
BRANCH   1  16
ATOM     15  C   UNL     1     -12.388  14.061  65.957  0.00  0.00    +0.074 C 
ATOM     16  S   UNL     1     -12.078  13.876  66.706  0.00  0.00    -0.113 S 
ENDBRANCH   1  16
BRANCH   4  17
ATOM     17  C   UNL     1      -9.297   9.848  69.038  0.00  0.00    +0.097 C 
BRANCH  17  18
ATOM     18  C   UNL     1      -9.407   8.838  67.999  0.00  0.00    +0.038 C 
BRANCH  18  19
ATOM     19  C   UNL     1      -8.725   9.368  66.586  0.00  0.00    +0.059 C 
ATOM     20  N   UNL     1      -8.714   7.898  65.976  0.00  0.00    -0.273 NA
ATOM     21  C   UNL     1      -7.531   7.361  66.650  0.00  0.00    +0.090 C 
ATOM     22  C   UNL     1      -8.312   8.068  64.598  0.00  0.00    +0.072 C 
ATOM     23  C   UNL     1      -8.544   9.420  64.037  0.00  0.00    +0.017 C 
ATOM     24  C   UNL     1      -9.812  10.087  64.433  0.00  0.00    +0.003 C 
ATOM     25  C   UNL     1     -10.160   9.728  65.837  0.00  0.00    +0.016 C 
ENDBRANCH  18  19
ENDBRANCH  17  18
ENDBRANCH   4  17
TORSDOF 4
ENDMDL
MODEL 9
REMARK VINA RESULT:      -5.9      2.855      6.270
REMARK  Name = 
REMARK  4 active torsions:
REMARK  status: ('A' for Active; 'I' for Inactive)
REMARK    1  A    between atoms: S_2  and  C_3
REMARK    2  A    between atoms: N_9  and  C_10
REMARK    3  A    between atoms: C_10  and  C_11
REMARK    4  A    between atoms: C_11  and  C_12
REMARK                            x       y       z     vdW  Elec       q    Type
REMARK                         _______ _______ _______ _____ _____    ______ ____
ROOT
ATOM      1  C   UNL     1     -11.584   8.757  71.772  0.00  0.00    +0.027 A 
ATOM      2  C   UNL     1     -10.992   9.323  70.650  0.00  0.00    +0.021 A 
ATOM      3  C   UNL     1     -11.395  10.559  70.152  0.00  0.00    +0.058 A 
ATOM      4  N   UNL     1     -10.879  11.059  68.912  0.00  0.00    -0.286 N 
ATOM      5  C   UNL     1     -11.483  12.208  68.311  0.00  0.00    +0.058 A 
ATOM      6  C   UNL     1     -11.705  13.312  69.125  0.00  0.00    +0.043 A 
ATOM      7  S   UNL     1     -12.394  12.987  70.754  0.00  0.00    -0.084 S 
ATOM      8  C   UNL     1     -11.728  14.568  68.598  0.00  0.00    +0.008 A 
ATOM      9  C   UNL     1     -11.635  14.692  67.217  0.00  0.00    +0.001 A 
ATOM     10  C   UNL     1     -11.638  13.581  66.418  0.00  0.00    +0.001 A 
ATOM     11  C   UNL     1     -11.770  12.312  66.971  0.00  0.00    +0.015 A 
ATOM     12  C   UNL     1     -12.427  11.190  70.837  0.00  0.00    +0.043 A 
ATOM     13  C   UNL     1     -13.266  10.510  71.705  0.00  0.00    +0.008 A 
ATOM     14  C   UNL     1     -12.875   9.212  72.014  0.00  0.00    +0.007 A 
ENDROOT
BRANCH   1  16
ATOM     15  C   UNL     1     -10.447   7.082  73.393  0.00  0.00    +0.074 C 
ATOM     16  S   UNL     1     -10.721   7.691  72.897  0.00  0.00    -0.113 S 
ENDBRANCH   1  16
BRANCH   4  17
ATOM     17  C   UNL     1     -10.278  10.055  68.037  0.00  0.00    +0.097 C 
BRANCH  17  18
ATOM     18  C   UNL     1      -8.855  10.288  67.857  0.00  0.00    +0.038 C 
BRANCH  18  19
ATOM     19  C   UNL     1      -8.521  10.718  66.293  0.00  0.00    +0.059 C 
ATOM     20  N   UNL     1      -7.353   9.642  66.188  0.00  0.00    -0.273 NA
ATOM     21  C   UNL     1      -6.291  10.365  66.888  0.00  0.00    +0.090 C 
ATOM     22  C   UNL     1      -6.958   9.655  64.798  0.00  0.00    +0.072 C 
ATOM     23  C   UNL     1      -7.982  10.165  63.856  0.00  0.00    +0.017 C 
ATOM     24  C   UNL     1      -9.387   9.762  64.131  0.00  0.00    +0.003 C 
ATOM     25  C   UNL     1      -9.615   9.679  65.602  0.00  0.00    +0.016 C 
ENDBRANCH  18  19
ENDBRANCH  17  18
ENDBRANCH   4  17
TORSDOF 4
ENDMDL
