MODEL 1
REMARK VINA RESULT:      -6.1      0.000      0.000
REMARK  Name = 
REMARK  6 active torsions:
REMARK  status: ('A' for Active; 'I' for Inactive)
REMARK    1  A    between atoms: O_2  and  C_3
REMARK    2  A    between atoms: C_6  and  C_7
REMARK    3  A    between atoms: C_7  and  N_8
REMARK    4  A    between atoms: N_8  and  C_9
REMARK    5  A    between atoms: C_9  and  C_10
REMARK    6  A    between atoms: C_10  and  N_11
REMARK                            x       y       z     vdW  Elec       q    Type
REMARK                         _______ _______ _______ _____ _____    ______ ____
ROOT
ATOM      1  N   UNL     1     -10.484  15.359  67.526  0.00  0.00    -0.273 N 
ATOM      2  C   UNL     1     -10.151  16.685  67.097  0.00  0.00    +0.220 A 
ATOM      3  N   UNL     1     -10.854  17.696  67.646  0.00  0.00    -0.212 NA
ATOM      4  C   UNL     1     -10.471  18.990  67.543  0.00  0.00    +0.103 A 
ATOM      5  C   UNL     1      -9.269  19.236  66.943  0.00  0.00    +0.041 A 
ATOM      6  C   UNL     1      -8.472  18.182  66.536  0.00  0.00    +0.103 A 
ATOM      7  N   UNL     1      -9.046  16.976  66.405  0.00  0.00    -0.212 NA
ENDROOT
BRANCH   1   8
ATOM      8  C   UNL     1     -10.440  15.114  68.942  0.00  0.00    +0.120 C 
BRANCH   8  12
ATOM      9  C   UNL     1     -13.141  14.244  71.921  0.00  0.00    +0.139 A 
ATOM     10  C   UNL     1     -13.342  15.409  71.190  0.00  0.00    +0.037 A 
ATOM     11  C   UNL     1     -12.624  15.660  70.026  0.00  0.00    +0.001 A 
ATOM     12  C   UNL     1     -11.767  14.701  69.497  0.00  0.00    -0.002 A 
ATOM     13  C   UNL     1     -11.990  13.411  69.968  0.00  0.00    +0.001 A 
ATOM     14  C   UNL     1     -12.626  13.185  71.183  0.00  0.00    +0.037 A 
BRANCH   9  16
ATOM     15  C   UNL     1     -12.390  15.306  74.013  0.00  0.00    +0.252 C 
ATOM     16  O   UNL     1     -13.042  14.268  73.316  0.00  0.00    -0.471 OA
ENDBRANCH   9  16
ENDBRANCH   8  12
ENDBRANCH   1   8
BRANCH   1  17
ATOM     17  C   UNL     1     -10.582  14.282  66.572  0.00  0.00    +0.111 C 
BRANCH  17  18
ATOM     18  C   UNL     1     -11.958  14.163  65.972  0.00  0.00    +0.094 C 
BRANCH  18  19
ATOM     19  N   UNL     1     -12.328  12.777  65.886  0.00  0.00    -0.269 NA
ATOM     20  C   UNL     1     -11.337  11.920  66.529  0.00  0.00    +0.090 C 
ATOM     21  C   UNL     1     -12.331  12.403  64.486  0.00  0.00    +0.090 C 
ENDBRANCH  18  19
ENDBRANCH  17  18
ENDBRANCH   1  17
TORSDOF 6
ENDMDL
MODEL 2
REMARK VINA RESULT:      -6.0      2.765      5.650
REMARK  Name = 
REMARK  6 active torsions:
REMARK  status: ('A' for Active; 'I' for Inactive)
REMARK    1  A    between atoms: O_2  and  C_3
REMARK    2  A    between atoms: C_6  and  C_7
REMARK    3  A    between atoms: C_7  and  N_8
REMARK    4  A    between atoms: N_8  and  C_9
REMARK    5  A    between atoms: C_9  and  C_10
REMARK    6  A    between atoms: C_10  and  N_11
REMARK                            x       y       z     vdW  Elec       q    Type
REMARK                         _______ _______ _______ _____ _____    ______ ____
ROOT
ATOM      1  N   UNL     1     -11.036  15.560  69.030  0.00  0.00    -0.273 N 
ATOM      2  C   UNL     1     -10.310  16.757  68.722  0.00  0.00    +0.220 A 
ATOM      3  N   UNL     1      -8.966  16.689  68.798  0.00  0.00    -0.212 NA
ATOM      4  C   UNL     1      -8.158  17.644  68.280  0.00  0.00    +0.103 A 
ATOM      5  C   UNL     1      -8.756  18.646  67.570  0.00  0.00    +0.041 A 
ATOM      6  C   UNL     1     -10.121  18.616  67.349  0.00  0.00    +0.103 A 
ATOM      7  N   UNL     1     -10.864  17.819  68.132  0.00  0.00    -0.212 NA
ENDROOT
BRANCH   1   8
ATOM      8  C   UNL     1     -10.681  14.386  68.279  0.00  0.00    +0.120 C 
BRANCH   8  12
ATOM      9  C   UNL     1     -11.482  12.899  64.527  0.00  0.00    +0.139 A 
ATOM     10  C   UNL     1     -12.563  13.285  65.310  0.00  0.00    +0.037 A 
ATOM     11  C   UNL     1     -12.379  14.007  66.484  0.00  0.00    +0.001 A 
ATOM     12  C   UNL     1     -11.117  14.464  66.849  0.00  0.00    -0.002 A 
ATOM     13  C   UNL     1     -10.195  14.493  65.808  0.00  0.00    +0.001 A 
ATOM     14  C   UNL     1     -10.349  13.689  64.683  0.00  0.00    +0.037 A 
BRANCH   9  16
ATOM     15  C   UNL     1     -10.168  11.025  63.615  0.00  0.00    +0.252 C 
ATOM     16  O   UNL     1     -11.395  11.612  63.988  0.00  0.00    -0.471 OA
ENDBRANCH   9  16
ENDBRANCH   8  12
ENDBRANCH   1   8
BRANCH   1  17
ATOM     17  C   UNL     1     -12.227  15.612  69.840  0.00  0.00    +0.111 C 
BRANCH  17  18
ATOM     18  C   UNL     1     -11.930  15.908  71.287  0.00  0.00    +0.094 C 
BRANCH  18  19
ATOM     19  N   UNL     1     -13.161  15.995  72.023  0.00  0.00    -0.269 NA
ATOM     20  C   UNL     1     -12.948  15.750  73.447  0.00  0.00    +0.090 C 
ATOM     21  C   UNL     1     -14.034  14.934  71.562  0.00  0.00    +0.090 C 
ENDBRANCH  18  19
ENDBRANCH  17  18
ENDBRANCH   1  17
TORSDOF 6
ENDMDL
MODEL 3
REMARK VINA RESULT:      -5.8      2.715      5.524
REMARK  Name = 
REMARK  6 active torsions:
REMARK  status: ('A' for Active; 'I' for Inactive)
REMARK    1  A    between atoms: O_2  and  C_3
REMARK    2  A    between atoms: C_6  and  C_7
REMARK    3  A    between atoms: C_7  and  N_8
REMARK    4  A    between atoms: N_8  and  C_9
REMARK    5  A    between atoms: C_9  and  C_10
REMARK    6  A    between atoms: C_10  and  N_11
REMARK                            x       y       z     vdW  Elec       q    Type
REMARK                         _______ _______ _______ _____ _____    ______ ____
ROOT
ATOM      1  N   UNL     1     -10.620  16.210  68.062  0.00  0.00    -0.273 N 
ATOM      2  C   UNL     1     -10.161  17.560  67.917  0.00  0.00    +0.220 A 
ATOM      3  N   UNL     1      -8.827  17.747  67.877  0.00  0.00    -0.212 NA
ATOM      4  C   UNL     1      -8.266  18.912  67.477  0.00  0.00    +0.103 A 
ATOM      5  C   UNL     1      -9.110  19.878  67.004  0.00  0.00    +0.041 A 
ATOM      6  C   UNL     1     -10.462  19.615  66.886  0.00  0.00    +0.103 A 
ATOM      7  N   UNL     1     -10.959  18.573  67.569  0.00  0.00    -0.212 NA
ENDROOT
BRANCH   1   8
ATOM      8  C   UNL     1     -10.143  15.264  67.089  0.00  0.00    +0.120 C 
BRANCH   8  12
ATOM      9  C   UNL     1     -11.780  12.498  64.520  0.00  0.00    +0.139 A 
ATOM     10  C   UNL     1     -11.674  12.147  65.861  0.00  0.00    +0.037 A 
ATOM     11  C   UNL     1     -11.354  13.094  66.829  0.00  0.00    +0.001 A 
ATOM     12  C   UNL     1     -11.245  14.441  66.499  0.00  0.00    -0.002 A 
ATOM     13  C   UNL     1     -11.845  14.786  65.293  0.00  0.00    +0.001 A 
ATOM     14  C   UNL     1     -12.069  13.840  64.299  0.00  0.00    +0.037 A 
BRANCH   9  16
ATOM     15  C   UNL     1     -10.163  10.803  63.757  0.00  0.00    +0.252 C 
ATOM     16  O   UNL     1     -11.220  11.704  63.514  0.00  0.00    -0.471 OA
ENDBRANCH   9  16
ENDBRANCH   8  12
ENDBRANCH   1   8
BRANCH   1  17
ATOM     17  C   UNL     1     -11.706  15.896  68.957  0.00  0.00    +0.111 C 
BRANCH  17  18
ATOM     18  C   UNL     1     -11.329  16.067  70.405  0.00  0.00    +0.094 C 
BRANCH  18  19
ATOM     19  N   UNL     1     -12.492  15.888  71.230  0.00  0.00    -0.269 NA
ATOM     20  C   UNL     1     -12.161  15.996  72.648  0.00  0.00    +0.090 C 
ATOM     21  C   UNL     1     -12.973  14.534  71.036  0.00  0.00    +0.090 C 
ENDBRANCH  18  19
ENDBRANCH  17  18
ENDBRANCH   1  17
TORSDOF 6
ENDMDL
MODEL 4
REMARK VINA RESULT:      -5.8      1.041      4.289
REMARK  Name = 
REMARK  6 active torsions:
REMARK  status: ('A' for Active; 'I' for Inactive)
REMARK    1  A    between atoms: O_2  and  C_3
REMARK    2  A    between atoms: C_6  and  C_7
REMARK    3  A    between atoms: C_7  and  N_8
REMARK    4  A    between atoms: N_8  and  C_9
REMARK    5  A    between atoms: C_9  and  C_10
REMARK    6  A    between atoms: C_10  and  N_11
REMARK                            x       y       z     vdW  Elec       q    Type
REMARK                         _______ _______ _______ _____ _____    ______ ____
ROOT
ATOM      1  N   UNL     1      -9.931  15.267  67.672  0.00  0.00    -0.273 N 
ATOM      2  C   UNL     1     -10.575  14.436  66.697  0.00  0.00    +0.220 A 
ATOM      3  N   UNL     1     -10.211  13.139  66.670  0.00  0.00    -0.212 NA
ATOM      4  C   UNL     1     -10.919  12.198  66.000  0.00  0.00    +0.103 A 
ATOM      5  C   UNL     1     -12.095  12.595  65.429  0.00  0.00    +0.041 A 
ATOM      6  C   UNL     1     -12.547  13.890  65.609  0.00  0.00    +0.103 A 
ATOM      7  N   UNL     1     -11.662  14.811  66.018  0.00  0.00    -0.212 NA
ENDROOT
BRANCH   1   8
ATOM      8  C   UNL     1     -10.014  14.830  69.040  0.00  0.00    +0.120 C 
BRANCH   8  12
ATOM      9  C   UNL     1     -13.008  14.388  71.828  0.00  0.00    +0.139 A 
ATOM     10  C   UNL     1     -12.944  15.593  71.138  0.00  0.00    +0.037 A 
ATOM     11  C   UNL     1     -12.121  15.742  70.027  0.00  0.00    +0.001 A 
ATOM     12  C   UNL     1     -11.427  14.656  69.503  0.00  0.00    -0.002 A 
ATOM     13  C   UNL     1     -11.915  13.417  69.905  0.00  0.00    +0.001 A 
ATOM     14  C   UNL     1     -12.655  13.275  71.073  0.00  0.00    +0.037 A 
BRANCH   9  16
ATOM     15  C   UNL     1     -12.442  15.383  74.009  0.00  0.00    +0.252 C 
ATOM     16  O   UNL     1     -12.992  14.347  73.225  0.00  0.00    -0.471 OA
ENDBRANCH   9  16
ENDBRANCH   8  12
ENDBRANCH   1   8
BRANCH   1  17
ATOM     17  C   UNL     1      -9.477  16.590  67.324  0.00  0.00    +0.111 C 
BRANCH  17  18
ATOM     18  C   UNL     1     -10.501  17.652  67.627  0.00  0.00    +0.094 C 
BRANCH  18  19
ATOM     19  N   UNL     1      -9.879  18.731  68.343  0.00  0.00    -0.269 NA
ATOM     20  C   UNL     1     -10.010  19.994  67.621  0.00  0.00    +0.090 C 
ATOM     21  C   UNL     1      -8.457  18.459  68.415  0.00  0.00    +0.090 C 
ENDBRANCH  18  19
ENDBRANCH  17  18
ENDBRANCH   1  17
TORSDOF 6
ENDMDL
MODEL 5
REMARK VINA RESULT:      -5.8      1.683      4.737
REMARK  Name = 
REMARK  6 active torsions:
REMARK  status: ('A' for Active; 'I' for Inactive)
REMARK    1  A    between atoms: O_2  and  C_3
REMARK    2  A    between atoms: C_6  and  C_7
REMARK    3  A    between atoms: C_7  and  N_8
REMARK    4  A    between atoms: N_8  and  C_9
REMARK    5  A    between atoms: C_9  and  C_10
REMARK    6  A    between atoms: C_10  and  N_11
REMARK                            x       y       z     vdW  Elec       q    Type
REMARK                         _______ _______ _______ _____ _____    ______ ____
ROOT
ATOM      1  N   UNL     1     -10.844  14.323  65.981  0.00  0.00    -0.273 N 
ATOM      2  C   UNL     1     -10.402  13.103  65.372  0.00  0.00    +0.220 A 
ATOM      3  N   UNL     1     -10.073  12.094  66.202  0.00  0.00    -0.212 NA
ATOM      4  C   UNL     1      -9.905  10.821  65.772  0.00  0.00    +0.103 A 
ATOM      5  C   UNL     1     -10.188  10.567  64.459  0.00  0.00    +0.041 A 
ATOM      6  C   UNL     1     -10.691  11.573  63.654  0.00  0.00    +0.103 A 
ATOM      7  N   UNL     1     -10.545  12.840  64.070  0.00  0.00    -0.212 NA
ENDROOT
BRANCH   1   8
ATOM      8  C   UNL     1     -11.952  14.218  66.893  0.00  0.00    +0.120 C 
BRANCH   8  12
ATOM      9  C   UNL     1     -12.497  15.235  70.842  0.00  0.00    +0.139 A 
ATOM     10  C   UNL     1     -12.357  13.886  70.539  0.00  0.00    +0.037 A 
ATOM     11  C   UNL     1     -11.940  13.472  69.278  0.00  0.00    +0.001 A 
ATOM     12  C   UNL     1     -11.540  14.398  68.321  0.00  0.00    -0.002 A 
ATOM     13  C   UNL     1     -11.222  15.651  68.834  0.00  0.00    +0.001 A 
ATOM     14  C   UNL     1     -11.728  16.084  70.054  0.00  0.00    +0.037 A 
BRANCH   9  16
ATOM     15  C   UNL     1     -14.796  14.964  71.684  0.00  0.00    +0.252 C 
ATOM     16  O   UNL     1     -13.608  15.711  71.545  0.00  0.00    -0.471 OA
ENDBRANCH   9  16
ENDBRANCH   8  12
ENDBRANCH   1   8
BRANCH   1  17
ATOM     17  C   UNL     1     -10.383  15.598  65.490  0.00  0.00    +0.111 C 
BRANCH  17  18
ATOM     18  C   UNL     1      -8.986  15.923  65.948  0.00  0.00    +0.094 C 
BRANCH  18  19
ATOM     19  N   UNL     1      -8.855  17.343  66.124  0.00  0.00    -0.269 NA
ATOM     20  C   UNL     1      -8.308  17.669  67.438  0.00  0.00    +0.090 C 
ATOM     21  C   UNL     1     -10.184  17.922  66.091  0.00  0.00    +0.090 C 
ENDBRANCH  18  19
ENDBRANCH  17  18
ENDBRANCH   1  17
TORSDOF 6
ENDMDL
MODEL 6
REMARK VINA RESULT:      -5.8      2.803      5.976
REMARK  Name = 
REMARK  6 active torsions:
REMARK  status: ('A' for Active; 'I' for Inactive)
REMARK    1  A    between atoms: O_2  and  C_3
REMARK    2  A    between atoms: C_6  and  C_7
REMARK    3  A    between atoms: C_7  and  N_8
REMARK    4  A    between atoms: N_8  and  C_9
REMARK    5  A    between atoms: C_9  and  C_10
REMARK    6  A    between atoms: C_10  and  N_11
REMARK                            x       y       z     vdW  Elec       q    Type
REMARK                         _______ _______ _______ _____ _____    ______ ____
ROOT
ATOM      1  N   UNL     1     -11.453  15.436  69.311  0.00  0.00    -0.273 N 
ATOM      2  C   UNL     1     -12.216  15.639  70.507  0.00  0.00    +0.220 A 
ATOM      3  N   UNL     1     -13.327  14.891  70.653  0.00  0.00    -0.212 NA
ATOM      4  C   UNL     1     -13.982  14.781  71.833  0.00  0.00    +0.103 A 
ATOM      5  C   UNL     1     -13.409  15.380  72.919  0.00  0.00    +0.041 A 
ATOM      6  C   UNL     1     -12.179  16.000  72.797  0.00  0.00    +0.103 A 
ATOM      7  N   UNL     1     -11.757  16.315  71.563  0.00  0.00    -0.212 NA
ENDROOT
BRANCH   1   8
ATOM      8  C   UNL     1     -11.030  14.088  69.042  0.00  0.00    +0.120 C 
BRANCH   8  12
ATOM      9  C   UNL     1     -11.443  12.858  65.138  0.00  0.00    +0.139 A 
ATOM     10  C   UNL     1     -11.339  11.875  66.114  0.00  0.00    +0.037 A 
ATOM     11  C   UNL     1     -11.430  12.191  67.465  0.00  0.00    +0.001 A 
ATOM     12  C   UNL     1     -11.745  13.482  67.875  0.00  0.00    -0.002 A 
ATOM     13  C   UNL     1     -12.325  14.271  66.887  0.00  0.00    +0.001 A 
ATOM     14  C   UNL     1     -12.140  13.993  65.537  0.00  0.00    +0.037 A 
BRANCH   9  16
ATOM     15  C   UNL     1     -10.128  11.726  63.389  0.00  0.00    +0.252 C 
ATOM     16  O   UNL     1     -10.573  12.893  64.044  0.00  0.00    -0.471 OA
ENDBRANCH   9  16
ENDBRANCH   8  12
ENDBRANCH   1   8
BRANCH   1  17
ATOM     17  C   UNL     1     -10.916  16.560  68.583  0.00  0.00    +0.111 C 
BRANCH  17  18
ATOM     18  C   UNL     1      -9.423  16.473  68.404  0.00  0.00    +0.094 C 
BRANCH  18  19
ATOM     19  N   UNL     1      -9.085  16.757  67.036  0.00  0.00    -0.269 NA
ATOM     20  C   UNL     1     -10.211  17.352  66.322  0.00  0.00    +0.090 C 
ATOM     21  C   UNL     1      -8.812  15.497  66.373  0.00  0.00    +0.090 C 
ENDBRANCH  18  19
ENDBRANCH  17  18
ENDBRANCH   1  17
TORSDOF 6
ENDMDL
MODEL 7
REMARK VINA RESULT:      -5.7      2.867      5.595
REMARK  Name = 
REMARK  6 active torsions:
REMARK  status: ('A' for Active; 'I' for Inactive)
REMARK    1  A    between atoms: O_2  and  C_3
REMARK    2  A    between atoms: C_6  and  C_7
REMARK    3  A    between atoms: C_7  and  N_8
REMARK    4  A    between atoms: N_8  and  C_9
REMARK    5  A    between atoms: C_9  and  C_10
REMARK    6  A    between atoms: C_10  and  N_11
REMARK                            x       y       z     vdW  Elec       q    Type
REMARK                         _______ _______ _______ _____ _____    ______ ____
ROOT
ATOM      1  N   UNL     1     -11.577  12.782  67.374  0.00  0.00    -0.273 N 
ATOM      2  C   UNL     1     -11.472  12.327  66.019  0.00  0.00    +0.220 A 
ATOM      3  N   UNL     1     -12.579  12.430  65.257  0.00  0.00    -0.212 NA
ATOM      4  C   UNL     1     -12.550  12.297  63.910  0.00  0.00    +0.103 A 
ATOM      5  C   UNL     1     -11.323  12.156  63.325  0.00  0.00    +0.041 A 
ATOM      6  C   UNL     1     -10.178  12.224  64.099  0.00  0.00    +0.103 A 
ATOM      7  N   UNL     1     -10.307  12.060  65.424  0.00  0.00    -0.212 NA
ENDROOT
BRANCH   1   8
ATOM      8  C   UNL     1     -12.031  14.134  67.562  0.00  0.00    +0.120 C 
BRANCH   8  12
ATOM      9  C   UNL     1     -10.307  17.867  67.708  0.00  0.00    +0.139 A 
ATOM     10  C   UNL     1     -10.375  17.143  68.892  0.00  0.00    +0.037 A 
ATOM     11  C   UNL     1     -10.723  15.797  68.893  0.00  0.00    +0.001 A 
ATOM     12  C   UNL     1     -10.901  15.106  67.698  0.00  0.00    -0.002 A 
ATOM     13  C   UNL     1     -10.337  15.727  66.589  0.00  0.00    +0.001 A 
ATOM     14  C   UNL     1     -10.085  17.094  66.574  0.00  0.00    +0.037 A 
BRANCH   9  16
ATOM     15  C   UNL     1     -10.095  20.257  67.151  0.00  0.00    +0.252 C 
ATOM     16  O   UNL     1     -10.844  19.155  67.611  0.00  0.00    -0.471 OA
ENDBRANCH   9  16
ENDBRANCH   8  12
ENDBRANCH   1   8
BRANCH   1  17
ATOM     17  C   UNL     1     -10.996  12.020  68.452  0.00  0.00    +0.111 C 
BRANCH  17  18
ATOM     18  C   UNL     1     -11.993  11.111  69.120  0.00  0.00    +0.094 C 
BRANCH  18  19
ATOM     19  N   UNL     1     -11.943  11.304  70.543  0.00  0.00    -0.269 NA
ATOM     20  C   UNL     1     -12.792  10.342  71.241  0.00  0.00    +0.090 C 
ATOM     21  C   UNL     1     -12.498  12.610  70.837  0.00  0.00    +0.090 C 
ENDBRANCH  18  19
ENDBRANCH  17  18
ENDBRANCH   1  17
TORSDOF 6
ENDMDL
MODEL 8
REMARK VINA RESULT:      -5.6      2.800      6.285
REMARK  Name = 
REMARK  6 active torsions:
REMARK  status: ('A' for Active; 'I' for Inactive)
REMARK    1  A    between atoms: O_2  and  C_3
REMARK    2  A    between atoms: C_6  and  C_7
REMARK    3  A    between atoms: C_7  and  N_8
REMARK    4  A    between atoms: N_8  and  C_9
REMARK    5  A    between atoms: C_9  and  C_10
REMARK    6  A    between atoms: C_10  and  N_11
REMARK                            x       y       z     vdW  Elec       q    Type
REMARK                         _______ _______ _______ _____ _____    ______ ____
ROOT
ATOM      1  N   UNL     1     -10.884  15.028  68.388  0.00  0.00    -0.273 N 
ATOM      2  C   UNL     1     -11.549  14.122  67.499  0.00  0.00    +0.220 A 
ATOM      3  N   UNL     1     -12.063  14.647  66.369  0.00  0.00    -0.212 NA
ATOM      4  C   UNL     1     -12.469  13.881  65.329  0.00  0.00    +0.103 A 
ATOM      5  C   UNL     1     -12.239  12.537  65.420  0.00  0.00    +0.041 A 
ATOM      6  C   UNL     1     -11.554  12.026  66.508  0.00  0.00    +0.103 A 
ATOM      7  N   UNL     1     -11.458  12.793  67.604  0.00  0.00    -0.212 NA
ENDROOT
BRANCH   1   8
ATOM      8  C   UNL     1      -9.817  15.810  67.824  0.00  0.00    +0.120 C 
BRANCH   8  12
ATOM      9  C   UNL     1      -9.024  19.802  67.215  0.00  0.00    +0.139 A 
ATOM     10  C   UNL     1      -9.796  19.146  66.263  0.00  0.00    +0.037 A 
ATOM     11  C   UNL     1     -10.304  17.874  66.502  0.00  0.00    +0.001 A 
ATOM     12  C   UNL     1     -10.152  17.267  67.744  0.00  0.00    -0.002 A 
ATOM     13  C   UNL     1      -9.835  18.145  68.775  0.00  0.00    +0.001 A 
ATOM     14  C   UNL     1      -9.238  19.375  68.521  0.00  0.00    +0.037 A 
BRANCH   9  16
ATOM     15  C   UNL     1      -6.781  20.665  67.756  0.00  0.00    +0.252 C 
ATOM     16  O   UNL     1      -7.856  20.484  66.861  0.00  0.00    -0.471 OA
ENDBRANCH   9  16
ENDBRANCH   8  12
ENDBRANCH   1   8
BRANCH   1  17
ATOM     17  C   UNL     1     -11.096  14.947  69.812  0.00  0.00    +0.111 C 
BRANCH  17  18
ATOM     18  C   UNL     1     -12.385  15.595  70.243  0.00  0.00    +0.094 C 
BRANCH  18  19
ATOM     19  N   UNL     1     -12.723  15.160  71.571  0.00  0.00    -0.269 NA
ATOM     20  C   UNL     1     -14.163  15.228  71.803  0.00  0.00    +0.090 C 
ATOM     21  C   UNL     1     -12.122  16.086  72.510  0.00  0.00    +0.090 C 
ENDBRANCH  18  19
ENDBRANCH  17  18
ENDBRANCH   1  17
TORSDOF 6
ENDMDL
MODEL 9
REMARK VINA RESULT:      -5.6      1.598      2.227
REMARK  Name = 
REMARK  6 active torsions:
REMARK  status: ('A' for Active; 'I' for Inactive)
REMARK    1  A    between atoms: O_2  and  C_3
REMARK    2  A    between atoms: C_6  and  C_7
REMARK    3  A    between atoms: C_7  and  N_8
REMARK    4  A    between atoms: N_8  and  C_9
REMARK    5  A    between atoms: C_9  and  C_10
REMARK    6  A    between atoms: C_10  and  N_11
REMARK                            x       y       z     vdW  Elec       q    Type
REMARK                         _______ _______ _______ _____ _____    ______ ____
ROOT
ATOM      1  N   UNL     1     -10.538  14.295  66.242  0.00  0.00    -0.273 N 
ATOM      2  C   UNL     1      -9.586  15.365  66.201  0.00  0.00    +0.220 A 
ATOM      3  N   UNL     1     -10.046  16.573  65.816  0.00  0.00    -0.212 NA
ATOM      4  C   UNL     1      -9.336  17.712  65.990  0.00  0.00    +0.103 A 
ATOM      5  C   UNL     1      -8.159  17.611  66.678  0.00  0.00    +0.041 A 
ATOM      6  C   UNL     1      -7.778  16.397  67.220  0.00  0.00    +0.103 A 
ATOM      7  N   UNL     1      -8.373  15.289  66.754  0.00  0.00    -0.212 NA
ENDROOT
BRANCH   1   8
ATOM      8  C   UNL     1     -11.714  14.515  67.040  0.00  0.00    +0.120 C 
BRANCH   8  12
ATOM      9  C   UNL     1     -12.535  15.230  71.008  0.00  0.00    +0.139 A 
ATOM     10  C   UNL     1     -12.451  13.905  70.597  0.00  0.00    +0.037 A 
ATOM     11  C   UNL     1     -11.953  13.572  69.342  0.00  0.00    +0.001 A 
ATOM     12  C   UNL     1     -11.416  14.546  68.507  0.00  0.00    -0.002 A 
ATOM     13  C   UNL     1     -11.068  15.727  69.154  0.00  0.00    +0.001 A 
ATOM     14  C   UNL     1     -11.651  16.088  70.363  0.00  0.00    +0.037 A 
BRANCH   9  16
ATOM     15  C   UNL     1     -14.914  15.054  71.621  0.00  0.00    +0.252 C 
ATOM     16  O   UNL     1     -13.671  15.719  71.659  0.00  0.00    -0.471 OA
ENDBRANCH   9  16
ENDBRANCH   8  12
ENDBRANCH   1   8
BRANCH   1  17
ATOM     17  C   UNL     1     -10.195  12.987  65.740  0.00  0.00    +0.111 C 
BRANCH  17  18
ATOM     18  C   UNL     1     -11.407  12.137  65.464  0.00  0.00    +0.094 C 
BRANCH  18  19
ATOM     19  N   UNL     1     -11.426  11.759  64.078  0.00  0.00    -0.269 NA
ATOM     20  C   UNL     1     -10.085  11.787  63.500  0.00  0.00    +0.090 C 
ATOM     21  C   UNL     1     -12.193  12.754  63.355  0.00  0.00    +0.090 C 
ENDBRANCH  18  19
ENDBRANCH  17  18
ENDBRANCH   1  17
TORSDOF 6
ENDMDL
