MODEL 1
REMARK VINA RESULT:      -4.8      0.000      0.000
REMARK  Name = 
REMARK  6 active torsions:
REMARK  status: ('A' for Active; 'I' for Inactive)
REMARK    1  A    between atoms: C_2  and  C_4
REMARK    2  A    between atoms: C_2  and  C_6
REMARK    3  A    between atoms: C_6  and  C_8
REMARK    4  A    between atoms: N_10  and  C_11
REMARK    5  A    between atoms: C_11  and  C_12
REMARK    6  A    between atoms: C_12  and  C_13
REMARK                            x       y       z     vdW  Elec       q    Type
REMARK                         _______ _______ _______ _____ _____    ______ ____
ROOT
ATOM      1  C   UNL     1     -11.689  14.571  71.353  0.00  0.00    +0.231 C 
ATOM      2  O   UNL     1     -12.055  13.161  70.812  0.00  0.00    -0.213 OA
ENDROOT
BRANCH   1   4
ATOM      3  C   UNL     1     -13.711  15.505  71.732  0.00  0.00    +0.006 C 
ATOM      4  C   UNL     1     -13.116  14.723  72.240  0.00  0.00    +0.067 C 
ATOM      5  C   UNL     1     -13.771  13.415  72.248  0.00  0.00    +0.006 C 
BRANCH   4   6
ATOM      6  C   UNL     1     -12.509  15.164  73.559  0.00  0.00    +0.185 C 
ATOM      7  O   UNL     1     -13.105  16.339  74.000  0.00  0.00    -0.220 OA
ENDBRANCH   4   6
ENDBRANCH   1   4
BRANCH   1   8
ATOM      8  C   UNL     1     -12.359  15.323  70.037  0.00  0.00    +0.272 C 
ATOM      9  N   UNL     1     -12.458  14.457  68.906  0.00  0.00    -0.203 NA
ATOM     10  O   UNL     1     -11.692  16.386  69.830  0.00  0.00    -0.271 OA
BRANCH   9  11
ATOM     11  C   UNL     1     -11.772  14.703  67.642  0.00  0.00    +0.118 C 
BRANCH  11  12
ATOM     12  C   UNL     1     -11.769  13.518  66.731  0.00  0.00    +0.059 C 
BRANCH  12  13
ATOM     13  C   UNL     1     -12.594  13.886  65.509  0.00  0.00    +0.184 C 
ATOM     14  O   UNL     1     -13.074  12.722  64.958  0.00  0.00    -0.220 OA
ENDBRANCH  12  13
ENDBRANCH  11  12
ENDBRANCH   9  11
ENDBRANCH   1   8
TORSDOF 6
ENDMDL
MODEL 2
REMARK VINA RESULT:      -4.8      4.849      6.943
REMARK  Name = 
REMARK  6 active torsions:
REMARK  status: ('A' for Active; 'I' for Inactive)
REMARK    1  A    between atoms: C_2  and  C_4
REMARK    2  A    between atoms: C_2  and  C_6
REMARK    3  A    between atoms: C_6  and  C_8
REMARK    4  A    between atoms: N_10  and  C_11
REMARK    5  A    between atoms: C_11  and  C_12
REMARK    6  A    between atoms: C_12  and  C_13
REMARK                            x       y       z     vdW  Elec       q    Type
REMARK                         _______ _______ _______ _____ _____    ______ ____
ROOT
ATOM      1  C   UNL     1     -12.242  14.550  65.232  0.00  0.00    +0.231 C 
ATOM      2  O   UNL     1     -11.806  14.396  66.716  0.00  0.00    -0.213 OA
ENDROOT
BRANCH   1   4
ATOM      3  C   UNL     1     -10.340  13.497  64.618  0.00  0.00    +0.006 C 
ATOM      4  C   UNL     1     -11.395  13.182  64.726  0.00  0.00    +0.067 C 
ATOM      5  C   UNL     1     -11.586  12.145  65.740  0.00  0.00    +0.006 C 
BRANCH   4   6
ATOM      6  C   UNL     1     -12.113  12.955  63.408  0.00  0.00    +0.185 C 
ATOM      7  O   UNL     1     -13.195  12.099  63.586  0.00  0.00    -0.220 OA
ENDBRANCH   4   6
ENDBRANCH   1   4
BRANCH   1   8
ATOM      8  C   UNL     1     -10.959  15.542  64.890  0.00  0.00    +0.272 C 
ATOM      9  N   UNL     1     -10.309  16.020  66.068  0.00  0.00    -0.203 NA
ATOM     10  O   UNL     1     -11.386  16.456  64.116  0.00  0.00    -0.271 OA
BRANCH   9  11
ATOM     11  C   UNL     1     -10.224  17.432  66.422  0.00  0.00    +0.118 C 
BRANCH  11  12
ATOM     12  C   UNL     1      -9.761  17.663  67.825  0.00  0.00    +0.059 C 
BRANCH  12  13
ATOM     13  C   UNL     1     -10.002  19.128  68.144  0.00  0.00    +0.184 C 
ATOM     14  O   UNL     1     -11.117  19.533  67.451  0.00  0.00    -0.220 OA
ENDBRANCH  12  13
ENDBRANCH  11  12
ENDBRANCH   9  11
ENDBRANCH   1   8
TORSDOF 6
ENDMDL
MODEL 3
REMARK VINA RESULT:      -4.7      5.211      7.024
REMARK  Name = 
REMARK  6 active torsions:
REMARK  status: ('A' for Active; 'I' for Inactive)
REMARK    1  A    between atoms: C_2  and  C_4
REMARK    2  A    between atoms: C_2  and  C_6
REMARK    3  A    between atoms: C_6  and  C_8
REMARK    4  A    between atoms: N_10  and  C_11
REMARK    5  A    between atoms: C_11  and  C_12
REMARK    6  A    between atoms: C_12  and  C_13
REMARK                            x       y       z     vdW  Elec       q    Type
REMARK                         _______ _______ _______ _____ _____    ______ ____
ROOT
ATOM      1  C   UNL     1     -12.266  14.601  65.276  0.00  0.00    +0.231 C 
ATOM      2  O   UNL     1     -11.715  14.532  66.728  0.00  0.00    -0.213 OA
ENDROOT
BRANCH   1   4
ATOM      3  C   UNL     1     -10.350  13.565  64.677  0.00  0.00    +0.006 C 
ATOM      4  C   UNL     1     -11.404  13.244  64.766  0.00  0.00    +0.067 C 
ATOM      5  C   UNL     1     -11.604  12.194  65.765  0.00  0.00    +0.006 C 
BRANCH   4   6
ATOM      6  C   UNL     1     -12.102  13.028  63.436  0.00  0.00    +0.185 C 
ATOM      7  O   UNL     1     -13.132  12.105  63.572  0.00  0.00    -0.220 OA
ENDBRANCH   4   6
ENDBRANCH   1   4
BRANCH   1   8
ATOM      8  C   UNL     1     -11.054  15.623  64.793  0.00  0.00    +0.272 C 
ATOM      9  N   UNL     1     -10.387  16.238  65.897  0.00  0.00    -0.203 NA
ATOM     10  O   UNL     1     -11.559  16.441  63.961  0.00  0.00    -0.271 OA
BRANCH   9  11
ATOM     11  C   UNL     1     -10.367  17.679  66.122  0.00  0.00    +0.118 C 
BRANCH  11  12
ATOM     12  C   UNL     1      -9.314  18.110  67.091  0.00  0.00    +0.059 C 
BRANCH  12  13
ATOM     13  C   UNL     1      -8.365  19.034  66.346  0.00  0.00    +0.184 C 
ATOM     14  O   UNL     1      -7.577  18.258  65.529  0.00  0.00    -0.220 OA
ENDBRANCH  12  13
ENDBRANCH  11  12
ENDBRANCH   9  11
ENDBRANCH   1   8
TORSDOF 6
ENDMDL
MODEL 4
REMARK VINA RESULT:      -4.7      5.142      7.579
REMARK  Name = 
REMARK  6 active torsions:
REMARK  status: ('A' for Active; 'I' for Inactive)
REMARK    1  A    between atoms: C_2  and  C_4
REMARK    2  A    between atoms: C_2  and  C_6
REMARK    3  A    between atoms: C_6  and  C_8
REMARK    4  A    between atoms: N_10  and  C_11
REMARK    5  A    between atoms: C_11  and  C_12
REMARK    6  A    between atoms: C_12  and  C_13
REMARK                            x       y       z     vdW  Elec       q    Type
REMARK                         _______ _______ _______ _____ _____    ______ ____
ROOT
ATOM      1  C   UNL     1     -10.352  17.695  66.243  0.00  0.00    +0.231 C 
ATOM      2  O   UNL     1     -10.852  17.713  67.714  0.00  0.00    -0.213 OA
ENDROOT
BRANCH   1   4
ATOM      3  C   UNL     1      -9.066  15.844  66.100  0.00  0.00    +0.006 C 
ATOM      4  C   UNL     1     -10.151  16.021  66.214  0.00  0.00    +0.067 C 
ATOM      5  C   UNL     1     -10.693  15.491  67.466  0.00  0.00    +0.006 C 
BRANCH   4   6
ATOM      6  C   UNL     1     -10.963  15.723  64.967  0.00  0.00    +0.185 C 
ATOM      7  O   UNL     1     -11.255  16.899  64.285  0.00  0.00    -0.220 OA
ENDBRANCH   4   6
ENDBRANCH   1   4
BRANCH   1   8
ATOM      8  C   UNL     1      -8.779  17.934  66.704  0.00  0.00    +0.272 C 
ATOM      9  N   UNL     1      -8.671  18.423  68.041  0.00  0.00    -0.203 NA
ATOM     10  O   UNL     1      -8.237  18.678  65.826  0.00  0.00    -0.271 OA
BRANCH   9  11
ATOM     11  C   UNL     1      -8.083  19.714  68.380  0.00  0.00    +0.118 C 
BRANCH  11  12
ATOM     12  C   UNL     1      -6.653  19.621  68.803  0.00  0.00    +0.059 C 
BRANCH  12  13
ATOM     13  C   UNL     1      -5.941  20.849  68.260  0.00  0.00    +0.184 C 
ATOM     14  O   UNL     1      -6.756  21.425  67.316  0.00  0.00    -0.220 OA
ENDBRANCH  12  13
ENDBRANCH  11  12
ENDBRANCH   9  11
ENDBRANCH   1   8
TORSDOF 6
ENDMDL
MODEL 5
REMARK VINA RESULT:      -4.6      2.110      6.481
REMARK  Name = 
REMARK  6 active torsions:
REMARK  status: ('A' for Active; 'I' for Inactive)
REMARK    1  A    between atoms: C_2  and  C_4
REMARK    2  A    between atoms: C_2  and  C_6
REMARK    3  A    between atoms: C_6  and  C_8
REMARK    4  A    between atoms: N_10  and  C_11
REMARK    5  A    between atoms: C_11  and  C_12
REMARK    6  A    between atoms: C_12  and  C_13
REMARK                            x       y       z     vdW  Elec       q    Type
REMARK                         _______ _______ _______ _____ _____    ______ ____
ROOT
ATOM      1  C   UNL     1     -12.190  13.346  65.924  0.00  0.00    +0.231 C 
ATOM      2  O   UNL     1     -12.117  12.119  66.876  0.00  0.00    -0.213 OA
ENDROOT
BRANCH   1   4
ATOM      3  C   UNL     1     -10.341  13.406  64.628  0.00  0.00    +0.006 C 
ATOM      4  C   UNL     1     -11.147  12.665  64.786  0.00  0.00    +0.067 C 
ATOM      5  C   UNL     1     -10.665  11.397  65.333  0.00  0.00    +0.006 C 
BRANCH   4   6
ATOM      6  C   UNL     1     -12.123  12.555  63.630  0.00  0.00    +0.185 C 
ATOM      7  O   UNL     1     -12.667  13.799  63.333  0.00  0.00    -0.220 OA
ENDBRANCH   4   6
ENDBRANCH   1   4
BRANCH   1   8
ATOM      8  C   UNL     1     -10.940  14.107  66.700  0.00  0.00    +0.272 C 
ATOM      9  N   UNL     1     -10.776  13.654  68.044  0.00  0.00    -0.203 NA
ATOM     10  O   UNL     1     -11.133  15.359  66.587  0.00  0.00    -0.271 OA
BRANCH   9  11
ATOM     11  C   UNL     1     -10.916  14.521  69.209  0.00  0.00    +0.118 C 
BRANCH  11  12
ATOM     12  C   UNL     1     -12.245  14.396  69.882  0.00  0.00    +0.059 C 
BRANCH  12  13
ATOM     13  C   UNL     1     -12.450  15.651  70.712  0.00  0.00    +0.184 C 
ATOM     14  O   UNL     1     -13.739  15.634  71.191  0.00  0.00    -0.220 OA
ENDBRANCH  12  13
ENDBRANCH  11  12
ENDBRANCH   9  11
ENDBRANCH   1   8
TORSDOF 6
ENDMDL
MODEL 6
REMARK VINA RESULT:      -4.6      2.971      4.389
REMARK  Name = 
REMARK  6 active torsions:
REMARK  status: ('A' for Active; 'I' for Inactive)
REMARK    1  A    between atoms: C_2  and  C_4
REMARK    2  A    between atoms: C_2  and  C_6
REMARK    3  A    between atoms: C_6  and  C_8
REMARK    4  A    between atoms: N_10  and  C_11
REMARK    5  A    between atoms: C_11  and  C_12
REMARK    6  A    between atoms: C_12  and  C_13
REMARK                            x       y       z     vdW  Elec       q    Type
REMARK                         _______ _______ _______ _____ _____    ______ ____
ROOT
ATOM      1  C   UNL     1     -12.022  13.815  67.009  0.00  0.00    +0.231 C 
ATOM      2  O   UNL     1     -11.018  14.657  66.172  0.00  0.00    -0.213 OA
ENDROOT
BRANCH   1   4
ATOM      3  C   UNL     1     -11.920  13.737  69.265  0.00  0.00    +0.006 C 
ATOM      4  C   UNL     1     -11.323  14.244  68.484  0.00  0.00    +0.067 C 
ATOM      5  C   UNL     1      -9.926  13.808  68.452  0.00  0.00    +0.006 C 
BRANCH   4   6
ATOM      6  C   UNL     1     -11.547  15.742  68.406  0.00  0.00    +0.185 C 
ATOM      7  O   UNL     1     -12.089  16.215  69.596  0.00  0.00    -0.220 OA
ENDBRANCH   4   6
ENDBRANCH   1   4
BRANCH   1   8
ATOM      8  C   UNL     1     -11.081  12.456  66.893  0.00  0.00    +0.272 C 
ATOM      9  N   UNL     1     -10.300  12.434  65.698  0.00  0.00    -0.203 NA
ATOM     10  O   UNL     1     -11.849  11.453  67.038  0.00  0.00    -0.271 OA
BRANCH   9  11
ATOM     11  C   UNL     1     -10.432  11.409  64.669  0.00  0.00    +0.118 C 
BRANCH  11  12
ATOM     12  C   UNL     1     -10.890  11.949  63.352  0.00  0.00    +0.059 C 
BRANCH  12  13
ATOM     13  C   UNL     1     -12.374  12.249  63.479  0.00  0.00    +0.184 C 
ATOM     14  O   UNL     1     -12.546  13.603  63.314  0.00  0.00    -0.220 OA
ENDBRANCH  12  13
ENDBRANCH  11  12
ENDBRANCH   9  11
ENDBRANCH   1   8
TORSDOF 6
ENDMDL
MODEL 7
REMARK VINA RESULT:      -4.5      2.113      6.188
REMARK  Name = 
REMARK  6 active torsions:
REMARK  status: ('A' for Active; 'I' for Inactive)
REMARK    1  A    between atoms: C_2  and  C_4
REMARK    2  A    between atoms: C_2  and  C_6
REMARK    3  A    between atoms: C_6  and  C_8
REMARK    4  A    between atoms: N_10  and  C_11
REMARK    5  A    between atoms: C_11  and  C_12
REMARK    6  A    between atoms: C_12  and  C_13
REMARK                            x       y       z     vdW  Elec       q    Type
REMARK                         _______ _______ _______ _____ _____    ______ ____
ROOT
ATOM      1  C   UNL     1     -10.269  14.540  66.884  0.00  0.00    +0.231 C 
ATOM      2  O   UNL     1     -11.005  15.810  67.395  0.00  0.00    -0.213 OA
ENDROOT
BRANCH   1   4
ATOM      3  C   UNL     1     -10.472  13.867  64.737  0.00  0.00    +0.006 C 
ATOM      4  C   UNL     1     -11.041  14.560  65.384  0.00  0.00    +0.067 C 
ATOM      5  C   UNL     1     -12.427  14.144  65.597  0.00  0.00    +0.006 C 
BRANCH   4   6
ATOM      6  C   UNL     1     -10.838  16.027  65.053  0.00  0.00    +0.185 C 
ATOM      7  O   UNL     1     -11.610  16.388  63.954  0.00  0.00    -0.220 OA
ENDBRANCH   4   6
ENDBRANCH   1   4
BRANCH   1   8
ATOM      8  C   UNL     1     -11.418  13.534  67.526  0.00  0.00    +0.272 C 
ATOM      9  N   UNL     1     -12.096  14.120  68.638  0.00  0.00    -0.203 NA
ATOM     10  O   UNL     1     -10.849  12.426  67.781  0.00  0.00    -0.271 OA
BRANCH   9  11
ATOM     11  C   UNL     1     -12.062  13.562  69.986  0.00  0.00    +0.118 C 
BRANCH  11  12
ATOM     12  C   UNL     1     -12.200  14.595  71.057  0.00  0.00    +0.059 C 
BRANCH  12  13
ATOM     13  C   UNL     1     -13.679  14.917  71.186  0.00  0.00    +0.184 C 
ATOM     14  O   UNL     1     -13.819  15.866  72.171  0.00  0.00    -0.220 OA
ENDBRANCH  12  13
ENDBRANCH  11  12
ENDBRANCH   9  11
ENDBRANCH   1   8
TORSDOF 6
ENDMDL
MODEL 8
REMARK VINA RESULT:      -4.5      2.572      6.162
REMARK  Name = 
REMARK  6 active torsions:
REMARK  status: ('A' for Active; 'I' for Inactive)
REMARK    1  A    between atoms: C_2  and  C_4
REMARK    2  A    between atoms: C_2  and  C_6
REMARK    3  A    between atoms: C_6  and  C_8
REMARK    4  A    between atoms: N_10  and  C_11
REMARK    5  A    between atoms: C_11  and  C_12
REMARK    6  A    between atoms: C_12  and  C_13
REMARK                            x       y       z     vdW  Elec       q    Type
REMARK                         _______ _______ _______ _____ _____    ______ ____
ROOT
ATOM      1  C   UNL     1      -9.794  15.404  68.004  0.00  0.00    +0.231 C 
ATOM      2  O   UNL     1      -9.419  16.463  69.078  0.00  0.00    -0.213 OA
ENDROOT
BRANCH   1   4
ATOM      3  C   UNL     1     -10.316  17.402  67.088  0.00  0.00    +0.006 C 
ATOM      4  C   UNL     1      -9.757  16.516  66.735  0.00  0.00    +0.067 C 
ATOM      5  C   UNL     1      -8.353  16.800  66.440  0.00  0.00    +0.006 C 
BRANCH   4   6
ATOM      6  C   UNL     1     -10.494  15.690  65.698  0.00  0.00    +0.185 C 
ATOM      7  O   UNL     1     -10.907  16.493  64.641  0.00  0.00    -0.220 OA
ENDBRANCH   4   6
ENDBRANCH   1   4
BRANCH   1   8
ATOM      8  C   UNL     1     -11.417  15.642  68.241  0.00  0.00    +0.272 C 
ATOM      9  N   UNL     1     -11.699  16.266  69.493  0.00  0.00    -0.203 NA
ATOM     10  O   UNL     1     -11.991  14.520  68.070  0.00  0.00    -0.271 OA
BRANCH   9  11
ATOM     11  C   UNL     1     -12.494  15.639  70.544  0.00  0.00    +0.118 C 
BRANCH  11  12
ATOM     12  C   UNL     1     -12.082  16.049  71.921  0.00  0.00    +0.059 C 
BRANCH  12  13
ATOM     13  C   UNL     1     -13.203  15.650  72.865  0.00  0.00    +0.184 C 
ATOM     14  O   UNL     1     -14.397  15.892  72.229  0.00  0.00    -0.220 OA
ENDBRANCH  12  13
ENDBRANCH  11  12
ENDBRANCH   9  11
ENDBRANCH   1   8
TORSDOF 6
ENDMDL
MODEL 9
REMARK VINA RESULT:      -4.5      3.996      5.645
REMARK  Name = 
REMARK  6 active torsions:
REMARK  status: ('A' for Active; 'I' for Inactive)
REMARK    1  A    between atoms: C_2  and  C_4
REMARK    2  A    between atoms: C_2  and  C_6
REMARK    3  A    between atoms: C_6  and  C_8
REMARK    4  A    between atoms: N_10  and  C_11
REMARK    5  A    between atoms: C_11  and  C_12
REMARK    6  A    between atoms: C_12  and  C_13
REMARK                            x       y       z     vdW  Elec       q    Type
REMARK                         _______ _______ _______ _____ _____    ______ ____
ROOT
ATOM      1  C   UNL     1     -10.535  17.956  66.766  0.00  0.00    +0.231 C 
ATOM      2  O   UNL     1     -10.214  17.208  65.442  0.00  0.00    -0.213 OA
ENDROOT
BRANCH   1   4
ATOM      3  C   UNL     1      -8.817  18.153  68.220  0.00  0.00    +0.006 C 
ATOM      4  C   UNL     1      -8.913  18.252  67.123  0.00  0.00    +0.067 C 
ATOM      5  C   UNL     1      -8.114  17.275  66.383  0.00  0.00    +0.006 C 
BRANCH   4   6
ATOM      6  C   UNL     1      -8.836  19.682  66.620  0.00  0.00    +0.185 C 
ATOM      7  O   UNL     1      -9.818  20.462  67.220  0.00  0.00    -0.220 OA
ENDBRANCH   4   6
ENDBRANCH   1   4
BRANCH   1   8
ATOM      8  C   UNL     1     -10.530  16.548  67.641  0.00  0.00    +0.272 C 
ATOM      9  N   UNL     1     -10.762  15.399  66.826  0.00  0.00    -0.203 NA
ATOM     10  O   UNL     1     -11.358  16.694  68.594  0.00  0.00    -0.271 OA
BRANCH   9  11
ATOM     11  C   UNL     1     -11.908  14.512  66.994  0.00  0.00    +0.118 C 
BRANCH  11  12
ATOM     12  C   UNL     1     -12.174  13.657  65.797  0.00  0.00    +0.059 C 
BRANCH  12  13
ATOM     13  C   UNL     1     -12.192  14.572  64.584  0.00  0.00    +0.184 C 
ATOM     14  O   UNL     1     -12.619  13.834  63.505  0.00  0.00    -0.220 OA
ENDBRANCH  12  13
ENDBRANCH  11  12
ENDBRANCH   9  11
ENDBRANCH   1   8
TORSDOF 6
ENDMDL
