MODEL 1
REMARK VINA RESULT:      -5.7      0.000      0.000
REMARK  Name = 
REMARK  8 active torsions:
REMARK  status: ('A' for Active; 'I' for Inactive)
REMARK    1  A    between atoms: C_2  and  C_3
REMARK    2  A    between atoms: C_2  and  N_10
REMARK    3  A    between atoms: C_3  and  C_4
REMARK    4  A    between atoms: C_11  and  C_13
REMARK    5  A    between atoms: C_13  and  C_15
REMARK    6  A    between atoms: C_15  and  C_16
REMARK    7  A    between atoms: C_16  and  C_17
REMARK    8  A    between atoms: C_17  and  C_18
REMARK                            x       y       z     vdW  Elec       q    Type
REMARK                         _______ _______ _______ _____ _____    ______ ____
ROOT
ATOM      1  N   UNL     1     -10.307  15.732  67.754  0.00  0.00    -0.206 NA
ATOM      2  C   UNL     1     -10.237  17.104  67.560  0.00  0.00    +0.259 C 
ATOM      3  O   UNL     1     -10.988  17.984  68.022  0.00  0.00    -0.272 OA
ENDROOT
BRANCH   2   4
ATOM      4  C   UNL     1      -8.752  17.782  67.401  0.00  0.00    +0.169 C 
ATOM      5  N   UNL     1      -8.576  17.264  65.889  0.00  0.00    -0.123 NA
BRANCH   4   6
ATOM      6  C   UNL     1      -9.397  19.238  66.872  0.00  0.00    +0.028 C 
BRANCH   6   7
ATOM      7  C   UNL     1      -8.275  20.230  67.076  0.00  0.00    +0.004 C 
BRANCH   7   8
ATOM      8  C   UNL     1      -7.333  19.810  68.186  0.00  0.00    +0.021 C 
BRANCH   8   9
ATOM      9  C   UNL     1      -6.120  20.698  68.288  0.00  0.00    +0.109 C 
ATOM     10  N   UNL     1      -6.069  21.608  67.150  0.00  0.00    -0.131 NA
ENDBRANCH   8   9
ENDBRANCH   7   8
ENDBRANCH   6   7
ENDBRANCH   4   6
ENDBRANCH   2   4
BRANCH   1  12
ATOM     11  C   UNL     1     -11.907  14.033  67.508  0.00  0.00    +0.024 C 
ATOM     12  C   UNL     1     -11.734  15.426  68.410  0.00  0.00    +0.100 C 
BRANCH  12  13
ATOM     13  C   UNL     1     -11.039  14.578  69.669  0.00  0.00    +0.048 C 
BRANCH  13  14
ATOM     14  C   UNL     1     -12.030  14.970  70.727  0.00  0.00    -0.020 A 
ATOM     15  C   UNL     1     -11.769  16.011  71.611  0.00  0.00    -0.004 A 
ATOM     16  C   UNL     1     -12.398  16.098  72.848  0.00  0.00    -0.000 A 
ATOM     17  C   UNL     1     -12.757  14.877  73.411  0.00  0.00    -0.000 A 
ATOM     18  C   UNL     1     -13.381  14.017  72.513  0.00  0.00    -0.000 A 
ATOM     19  C   UNL     1     -12.835  13.960  71.243  0.00  0.00    -0.004 A 
ENDBRANCH  13  14
ENDBRANCH  12  13
ENDBRANCH   1  12
TORSDOF 8
ENDMDL
MODEL 2
REMARK VINA RESULT:      -5.6      4.252      6.096
REMARK  Name = 
REMARK  8 active torsions:
REMARK  status: ('A' for Active; 'I' for Inactive)
REMARK    1  A    between atoms: C_2  and  C_3
REMARK    2  A    between atoms: C_2  and  N_10
REMARK    3  A    between atoms: C_3  and  C_4
REMARK    4  A    between atoms: C_11  and  C_13
REMARK    5  A    between atoms: C_13  and  C_15
REMARK    6  A    between atoms: C_15  and  C_16
REMARK    7  A    between atoms: C_16  and  C_17
REMARK    8  A    between atoms: C_17  and  C_18
REMARK                            x       y       z     vdW  Elec       q    Type
REMARK                         _______ _______ _______ _____ _____    ______ ____
ROOT
ATOM      1  N   UNL     1     -11.515  13.943  67.202  0.00  0.00    -0.206 NA
ATOM      2  C   UNL     1     -11.698  12.704  66.603  0.00  0.00    +0.259 C 
ATOM      3  O   UNL     1     -11.924  11.610  67.154  0.00  0.00    -0.272 OA
ENDROOT
BRANCH   2   4
ATOM      4  C   UNL     1     -12.437  12.661  65.140  0.00  0.00    +0.169 C 
ATOM      5  N   UNL     1     -13.190  14.062  65.375  0.00  0.00    -0.123 NA
BRANCH   4   6
ATOM      6  C   UNL     1     -11.149  13.429  64.388  0.00  0.00    +0.028 C 
BRANCH   6   7
ATOM      7  C   UNL     1     -10.095  12.352  64.278  0.00  0.00    +0.004 C 
BRANCH   7   8
ATOM      8  C   UNL     1     -10.555  11.183  63.433  0.00  0.00    +0.021 C 
BRANCH   8   9
ATOM      9  C   UNL     1      -9.438  10.225  63.105  0.00  0.00    +0.109 C 
ATOM     10  N   UNL     1      -8.758  10.648  61.887  0.00  0.00    -0.131 NA
ENDBRANCH   8   9
ENDBRANCH   7   8
ENDBRANCH   6   7
ENDBRANCH   4   6
ENDBRANCH   2   4
BRANCH   1  12
ATOM     11  C   UNL     1      -9.779  14.346  68.729  0.00  0.00    +0.024 C 
ATOM     12  C   UNL     1     -11.308  13.678  68.766  0.00  0.00    +0.100 C 
BRANCH  12  13
ATOM     13  C   UNL     1     -11.990  15.148  69.166  0.00  0.00    +0.048 C 
BRANCH  13  14
ATOM     14  C   UNL     1     -12.097  14.907  70.644  0.00  0.00    -0.020 A 
ATOM     15  C   UNL     1     -13.093  14.092  71.172  0.00  0.00    -0.004 A 
ATOM     16  C   UNL     1     -13.517  14.214  72.491  0.00  0.00    -0.000 A 
ATOM     17  C   UNL     1     -13.409  15.494  73.026  0.00  0.00    -0.000 A 
ATOM     18  C   UNL     1     -12.186  16.101  72.763  0.00  0.00    -0.000 A 
ATOM     19  C   UNL     1     -11.687  15.938  71.483  0.00  0.00    -0.004 A 
ENDBRANCH  13  14
ENDBRANCH  12  13
ENDBRANCH   1  12
TORSDOF 8
ENDMDL
MODEL 3
REMARK VINA RESULT:      -5.5      3.402      5.038
REMARK  Name = 
REMARK  8 active torsions:
REMARK  status: ('A' for Active; 'I' for Inactive)
REMARK    1  A    between atoms: C_2  and  C_3
REMARK    2  A    between atoms: C_2  and  N_10
REMARK    3  A    between atoms: C_3  and  C_4
REMARK    4  A    between atoms: C_11  and  C_13
REMARK    5  A    between atoms: C_13  and  C_15
REMARK    6  A    between atoms: C_15  and  C_16
REMARK    7  A    between atoms: C_16  and  C_17
REMARK    8  A    between atoms: C_17  and  C_18
REMARK                            x       y       z     vdW  Elec       q    Type
REMARK                         _______ _______ _______ _____ _____    ______ ____
ROOT
ATOM      1  N   UNL     1     -11.025  14.063  68.031  0.00  0.00    -0.206 NA
ATOM      2  C   UNL     1     -10.034  13.165  67.657  0.00  0.00    +0.259 C 
ATOM      3  O   UNL     1      -8.999  12.862  68.280  0.00  0.00    -0.272 OA
ENDROOT
BRANCH   2   4
ATOM      4  C   UNL     1     -10.483  11.838  66.805  0.00  0.00    +0.169 C 
ATOM      5  N   UNL     1     -12.052  12.139  66.984  0.00  0.00    -0.123 NA
BRANCH   4   6
ATOM      6  C   UNL     1     -10.445  12.673  65.350  0.00  0.00    +0.028 C 
BRANCH   6   7
ATOM      7  C   UNL     1     -11.902  12.885  65.012  0.00  0.00    +0.004 C 
BRANCH   7   8
ATOM      8  C   UNL     1     -12.138  14.187  64.277  0.00  0.00    +0.021 C 
BRANCH   8   9
ATOM      9  C   UNL     1     -11.302  15.320  64.814  0.00  0.00    +0.109 C 
ATOM     10  N   UNL     1     -11.558  16.536  64.051  0.00  0.00    -0.131 NA
ENDBRANCH   8   9
ENDBRANCH   7   8
ENDBRANCH   6   7
ENDBRANCH   4   6
ENDBRANCH   2   4
BRANCH   1  12
ATOM     11  C   UNL     1      -9.735  16.013  68.230  0.00  0.00    +0.024 C 
ATOM     12  C   UNL     1     -10.447  14.910  69.259  0.00  0.00    +0.100 C 
BRANCH  12  13
ATOM     13  C   UNL     1     -11.837  15.830  69.356  0.00  0.00    +0.048 C 
BRANCH  13  14
ATOM     14  C   UNL     1     -12.327  15.289  70.668  0.00  0.00    -0.020 A 
ATOM     15  C   UNL     1     -13.686  15.195  70.948  0.00  0.00    -0.004 A 
ATOM     16  C   UNL     1     -14.165  15.161  72.252  0.00  0.00    -0.000 A 
ATOM     17  C   UNL     1     -13.382  15.838  73.183  0.00  0.00    -0.000 A 
ATOM     18  C   UNL     1     -12.024  15.560  73.067  0.00  0.00    -0.000 A 
ATOM     19  C   UNL     1     -11.521  15.505  71.780  0.00  0.00    -0.004 A 
ENDBRANCH  13  14
ENDBRANCH  12  13
ENDBRANCH   1  12
TORSDOF 8
ENDMDL
MODEL 4
REMARK VINA RESULT:      -5.5      3.757      7.347
REMARK  Name = 
REMARK  8 active torsions:
REMARK  status: ('A' for Active; 'I' for Inactive)
REMARK    1  A    between atoms: C_2  and  C_3
REMARK    2  A    between atoms: C_2  and  N_10
REMARK    3  A    between atoms: C_3  and  C_4
REMARK    4  A    between atoms: C_11  and  C_13
REMARK    5  A    between atoms: C_13  and  C_15
REMARK    6  A    between atoms: C_15  and  C_16
REMARK    7  A    between atoms: C_16  and  C_17
REMARK    8  A    between atoms: C_17  and  C_18
REMARK                            x       y       z     vdW  Elec       q    Type
REMARK                         _______ _______ _______ _____ _____    ______ ____
ROOT
ATOM      1  N   UNL     1     -11.255  14.623  67.174  0.00  0.00    -0.206 NA
ATOM      2  C   UNL     1     -11.656  14.549  68.500  0.00  0.00    +0.259 C 
ATOM      3  O   UNL     1     -12.028  13.543  69.135  0.00  0.00    -0.272 OA
ENDROOT
BRANCH   2   4
ATOM      4  C   UNL     1     -10.934  15.551  69.578  0.00  0.00    +0.169 C 
ATOM      5  N   UNL     1     -11.273  16.869  68.722  0.00  0.00    -0.123 NA
BRANCH   4   6
ATOM      6  C   UNL     1     -12.342  15.718  70.474  0.00  0.00    +0.028 C 
BRANCH   6   7
ATOM      7  C   UNL     1     -11.857  15.833  71.900  0.00  0.00    +0.004 C 
BRANCH   7   8
ATOM      8  C   UNL     1     -12.953  15.543  72.905  0.00  0.00    +0.021 C 
BRANCH   8   9
ATOM      9  C   UNL     1     -12.428  15.363  74.306  0.00  0.00    +0.109 C 
ATOM     10  N   UNL     1     -12.442  16.638  75.012  0.00  0.00    -0.131 NA
ENDBRANCH   8   9
ENDBRANCH   7   8
ENDBRANCH   6   7
ENDBRANCH   4   6
ENDBRANCH   2   4
BRANCH   1  12
ATOM     11  C   UNL     1     -12.759  14.011  65.479  0.00  0.00    +0.024 C 
ATOM     12  C   UNL     1     -11.671  13.241  66.483  0.00  0.00    +0.100 C 
BRANCH  12  13
ATOM     13  C   UNL     1     -10.456  13.377  65.345  0.00  0.00    +0.048 C 
BRANCH  13  14
ATOM     14  C   UNL     1     -10.513  11.963  64.843  0.00  0.00    -0.020 A 
ATOM     15  C   UNL     1     -10.170  10.892  65.661  0.00  0.00    -0.004 A 
ATOM     16  C   UNL     1      -9.759   9.671  65.137  0.00  0.00    -0.000 A 
ATOM     17  C   UNL     1      -9.113   9.749  63.907  0.00  0.00    -0.000 A 
ATOM     18  C   UNL     1      -9.763  10.572  62.993  0.00  0.00    -0.000 A 
ATOM     19  C   UNL     1     -10.260  11.763  63.491  0.00  0.00    -0.004 A 
ENDBRANCH  13  14
ENDBRANCH  12  13
ENDBRANCH   1  12
TORSDOF 8
ENDMDL
MODEL 5
REMARK VINA RESULT:      -5.5      3.478      7.001
REMARK  Name = 
REMARK  8 active torsions:
REMARK  status: ('A' for Active; 'I' for Inactive)
REMARK    1  A    between atoms: C_2  and  C_3
REMARK    2  A    between atoms: C_2  and  N_10
REMARK    3  A    between atoms: C_3  and  C_4
REMARK    4  A    between atoms: C_11  and  C_13
REMARK    5  A    between atoms: C_13  and  C_15
REMARK    6  A    between atoms: C_15  and  C_16
REMARK    7  A    between atoms: C_16  and  C_17
REMARK    8  A    between atoms: C_17  and  C_18
REMARK                            x       y       z     vdW  Elec       q    Type
REMARK                         _______ _______ _______ _____ _____    ______ ____
ROOT
ATOM      1  N   UNL     1     -11.121  13.771  69.228  0.00  0.00    -0.206 NA
ATOM      2  C   UNL     1     -10.261  14.852  69.098  0.00  0.00    +0.259 C 
ATOM      3  O   UNL     1      -9.540  15.147  68.127  0.00  0.00    -0.272 OA
ENDROOT
BRANCH   2   4
ATOM      4  C   UNL     1     -10.688  16.262  69.819  0.00  0.00    +0.169 C 
ATOM      5  N   UNL     1     -11.384  16.839  68.489  0.00  0.00    -0.123 NA
BRANCH   4   6
ATOM      6  C   UNL     1     -12.144  15.628  70.358  0.00  0.00    +0.028 C 
BRANCH   6   7
ATOM      7  C   UNL     1     -12.116  15.866  71.850  0.00  0.00    +0.004 C 
BRANCH   7   8
ATOM      8  C   UNL     1     -13.487  15.725  72.479  0.00  0.00    +0.021 C 
BRANCH   8   9
ATOM      9  C   UNL     1     -14.303  14.621  71.857  0.00  0.00    +0.109 C 
ATOM     10  N   UNL     1     -14.038  13.359  72.537  0.00  0.00    -0.131 NA
ENDBRANCH   8   9
ENDBRANCH   7   8
ENDBRANCH   6   7
ENDBRANCH   4   6
ENDBRANCH   2   4
BRANCH   1  12
ATOM     11  C   UNL     1     -11.509  11.489  68.837  0.00  0.00    +0.024 C 
ATOM     12  C   UNL     1     -10.780  12.759  68.037  0.00  0.00    +0.100 C 
BRANCH  12  13
ATOM     13  C   UNL     1     -12.199  13.128  67.238  0.00  0.00    +0.048 C 
BRANCH  13  14
ATOM     14  C   UNL     1     -11.659  13.027  65.841  0.00  0.00    -0.020 A 
ATOM     15  C   UNL     1     -12.505  12.878  64.748  0.00  0.00    -0.004 A 
ATOM     16  C   UNL     1     -12.067  12.322  63.551  0.00  0.00    -0.000 A 
ATOM     17  C   UNL     1     -11.042  11.390  63.678  0.00  0.00    -0.000 A 
ATOM     18  C   UNL     1     -10.018  11.806  64.522  0.00  0.00    -0.000 A 
ATOM     19  C   UNL     1     -10.409  12.437  65.690  0.00  0.00    -0.004 A 
ENDBRANCH  13  14
ENDBRANCH  12  13
ENDBRANCH   1  12
TORSDOF 8
ENDMDL
MODEL 6
REMARK VINA RESULT:      -5.5      4.566      6.735
REMARK  Name = 
REMARK  8 active torsions:
REMARK  status: ('A' for Active; 'I' for Inactive)
REMARK    1  A    between atoms: C_2  and  C_3
REMARK    2  A    between atoms: C_2  and  N_10
REMARK    3  A    between atoms: C_3  and  C_4
REMARK    4  A    between atoms: C_11  and  C_13
REMARK    5  A    between atoms: C_13  and  C_15
REMARK    6  A    between atoms: C_15  and  C_16
REMARK    7  A    between atoms: C_16  and  C_17
REMARK    8  A    between atoms: C_17  and  C_18
REMARK                            x       y       z     vdW  Elec       q    Type
REMARK                         _______ _______ _______ _____ _____    ______ ____
ROOT
ATOM      1  N   UNL     1     -10.493  12.567  63.833  0.00  0.00    -0.206 NA
ATOM      2  C   UNL     1     -11.819  12.967  63.741  0.00  0.00    +0.259 C 
ATOM      3  O   UNL     1     -12.842  12.264  63.844  0.00  0.00    -0.272 OA
ENDROOT
BRANCH   2   4
ATOM      4  C   UNL     1     -12.210  14.460  64.294  0.00  0.00    +0.169 C 
ATOM      5  N   UNL     1     -13.225  13.885  65.401  0.00  0.00    -0.123 NA
BRANCH   4   6
ATOM      6  C   UNL     1     -10.943  14.461  65.394  0.00  0.00    +0.028 C 
BRANCH   6   7
ATOM      7  C   UNL     1     -11.628  14.531  66.739  0.00  0.00    +0.004 C 
BRANCH   7   8
ATOM      8  C   UNL     1     -10.679  14.944  67.845  0.00  0.00    +0.021 C 
BRANCH   8   9
ATOM      9  C   UNL     1     -11.040  16.272  68.459  0.00  0.00    +0.109 C 
ATOM     10  N   UNL     1     -12.056  16.087  69.488  0.00  0.00    -0.131 NA
ENDBRANCH   8   9
ENDBRANCH   7   8
ENDBRANCH   6   7
ENDBRANCH   4   6
ENDBRANCH   2   4
BRANCH   1  12
ATOM     11  C   UNL     1      -9.273  10.977  62.612  0.00  0.00    +0.024 C 
ATOM     12  C   UNL     1     -10.482  10.969  63.761  0.00  0.00    +0.100 C 
BRANCH  12  13
ATOM     13  C   UNL     1      -9.367  10.862  64.999  0.00  0.00    +0.048 C 
BRANCH  13  14
ATOM     14  C   UNL     1     -10.267  10.201  66.003  0.00  0.00    -0.020 A 
ATOM     15  C   UNL     1     -10.825  10.920  67.055  0.00  0.00    -0.004 A 
ATOM     16  C   UNL     1     -11.247  10.298  68.225  0.00  0.00    -0.000 A 
ATOM     17  C   UNL     1     -10.548   9.142  68.560  0.00  0.00    -0.000 A 
ATOM     18  C   UNL     1     -10.368   8.275  67.487  0.00  0.00    -0.000 A 
ATOM     19  C   UNL     1     -10.025   8.861  66.282  0.00  0.00    -0.004 A 
ENDBRANCH  13  14
ENDBRANCH  12  13
ENDBRANCH   1  12
TORSDOF 8
ENDMDL
MODEL 7
REMARK VINA RESULT:      -5.5      3.139      6.845
REMARK  Name = 
REMARK  8 active torsions:
REMARK  status: ('A' for Active; 'I' for Inactive)
REMARK    1  A    between atoms: C_2  and  C_3
REMARK    2  A    between atoms: C_2  and  N_10
REMARK    3  A    between atoms: C_3  and  C_4
REMARK    4  A    between atoms: C_11  and  C_13
REMARK    5  A    between atoms: C_13  and  C_15
REMARK    6  A    between atoms: C_15  and  C_16
REMARK    7  A    between atoms: C_16  and  C_17
REMARK    8  A    between atoms: C_17  and  C_18
REMARK                            x       y       z     vdW  Elec       q    Type
REMARK                         _______ _______ _______ _____ _____    ______ ____
ROOT
ATOM      1  N   UNL     1     -11.032  14.351  69.244  0.00  0.00    -0.206 NA
ATOM      2  C   UNL     1     -11.388  13.745  68.047  0.00  0.00    +0.259 C 
ATOM      3  O   UNL     1     -11.809  14.286  67.008  0.00  0.00    -0.272 OA
ENDROOT
BRANCH   2   4
ATOM      4  C   UNL     1     -10.552  12.412  67.584  0.00  0.00    +0.169 C 
ATOM      5  N   UNL     1     -11.883  11.599  67.193  0.00  0.00    -0.123 NA
BRANCH   4   6
ATOM      6  C   UNL     1     -10.384  12.977  66.013  0.00  0.00    +0.028 C 
BRANCH   6   7
ATOM      7  C   UNL     1     -10.391  11.722  65.171  0.00  0.00    +0.004 C 
BRANCH   7   8
ATOM      8  C   UNL     1     -10.793  11.996  63.736  0.00  0.00    +0.021 C 
BRANCH   8   9
ATOM      9  C   UNL     1     -12.281  12.172  63.571  0.00  0.00    +0.109 C 
ATOM     10  N   UNL     1     -12.590  13.570  63.289  0.00  0.00    -0.131 NA
ENDBRANCH   8   9
ENDBRANCH   7   8
ENDBRANCH   6   7
ENDBRANCH   4   6
ENDBRANCH   2   4
BRANCH   1  12
ATOM     11  C   UNL     1     -11.577  15.975  70.848  0.00  0.00    +0.024 C 
ATOM     12  C   UNL     1     -11.576  15.854  69.184  0.00  0.00    +0.100 C 
BRANCH  12  13
ATOM     13  C   UNL     1     -10.028  16.474  69.095  0.00  0.00    +0.048 C 
BRANCH  13  14
ATOM     14  C   UNL     1     -10.362  17.692  68.284  0.00  0.00    -0.020 A 
ATOM     15  C   UNL     1     -10.527  17.619  66.905  0.00  0.00    -0.004 A 
ATOM     16  C   UNL     1     -10.365  18.732  66.087  0.00  0.00    -0.000 A 
ATOM     17  C   UNL     1      -9.462  19.680  66.558  0.00  0.00    -0.000 A 
ATOM     18  C   UNL     1      -9.631  19.982  67.905  0.00  0.00    -0.000 A 
ATOM     19  C   UNL     1      -9.874  18.910  68.745  0.00  0.00    -0.004 A 
ENDBRANCH  13  14
ENDBRANCH  12  13
ENDBRANCH   1  12
TORSDOF 8
ENDMDL
MODEL 8
REMARK VINA RESULT:      -5.4      4.142      7.289
REMARK  Name = 
REMARK  8 active torsions:
REMARK  status: ('A' for Active; 'I' for Inactive)
REMARK    1  A    between atoms: C_2  and  C_3
REMARK    2  A    between atoms: C_2  and  N_10
REMARK    3  A    between atoms: C_3  and  C_4
REMARK    4  A    between atoms: C_11  and  C_13
REMARK    5  A    between atoms: C_13  and  C_15
REMARK    6  A    between atoms: C_15  and  C_16
REMARK    7  A    between atoms: C_16  and  C_17
REMARK    8  A    between atoms: C_17  and  C_18
REMARK                            x       y       z     vdW  Elec       q    Type
REMARK                         _______ _______ _______ _____ _____    ______ ____
ROOT
ATOM      1  N   UNL     1     -11.410  13.284  68.371  0.00  0.00    -0.206 NA
ATOM      2  C   UNL     1     -10.419  12.333  68.170  0.00  0.00    +0.259 C 
ATOM      3  O   UNL     1      -9.219  12.393  68.499  0.00  0.00    -0.272 OA
ENDROOT
BRANCH   2   4
ATOM      4  C   UNL     1     -10.850  10.752  68.227  0.00  0.00    +0.169 C 
ATOM      5  N   UNL     1      -9.858  10.430  69.452  0.00  0.00    -0.123 NA
BRANCH   4   6
ATOM      6  C   UNL     1     -12.118  11.064  69.280  0.00  0.00    +0.028 C 
BRANCH   6   7
ATOM      7  C   UNL     1     -11.731  10.332  70.545  0.00  0.00    +0.004 C 
BRANCH   7   8
ATOM      8  C   UNL     1     -12.851  10.317  71.565  0.00  0.00    +0.021 C 
BRANCH   8   9
ATOM      9  C   UNL     1     -13.062   8.957  72.179  0.00  0.00    +0.109 C 
ATOM     10  N   UNL     1     -14.475   8.762  72.485  0.00  0.00    -0.131 NA
ENDBRANCH   8   9
ENDBRANCH   7   8
ENDBRANCH   6   7
ENDBRANCH   4   6
ENDBRANCH   2   4
BRANCH   1  12
ATOM     11  C   UNL     1     -10.747  15.238  67.252  0.00  0.00    +0.024 C 
ATOM     12  C   UNL     1     -10.675  14.637  68.807  0.00  0.00    +0.100 C 
BRANCH  12  13
ATOM     13  C   UNL     1     -12.124  15.365  69.204  0.00  0.00    +0.048 C 
BRANCH  13  14
ATOM     14  C   UNL     1     -12.091  15.057  70.672  0.00  0.00    -0.020 A 
ATOM     15  C   UNL     1     -12.976  14.147  71.239  0.00  0.00    -0.004 A 
ATOM     16  C   UNL     1     -13.298  14.181  72.591  0.00  0.00    -0.000 A 
ATOM     17  C   UNL     1     -13.242  15.443  73.176  0.00  0.00    -0.000 A 
ATOM     18  C   UNL     1     -12.094  16.154  72.845  0.00  0.00    -0.000 A 
ATOM     19  C   UNL     1     -11.691  16.082  71.523  0.00  0.00    -0.004 A 
ENDBRANCH  13  14
ENDBRANCH  12  13
ENDBRANCH   1  12
TORSDOF 8
ENDMDL
MODEL 9
REMARK VINA RESULT:      -5.4      2.422      4.933
REMARK  Name = 
REMARK  8 active torsions:
REMARK  status: ('A' for Active; 'I' for Inactive)
REMARK    1  A    between atoms: C_2  and  C_3
REMARK    2  A    between atoms: C_2  and  N_10
REMARK    3  A    between atoms: C_3  and  C_4
REMARK    4  A    between atoms: C_11  and  C_13
REMARK    5  A    between atoms: C_13  and  C_15
REMARK    6  A    between atoms: C_15  and  C_16
REMARK    7  A    between atoms: C_16  and  C_17
REMARK    8  A    between atoms: C_17  and  C_18
REMARK                            x       y       z     vdW  Elec       q    Type
REMARK                         _______ _______ _______ _____ _____    ______ ____
ROOT
ATOM      1  N   UNL     1     -10.632  15.569  67.681  0.00  0.00    -0.206 NA
ATOM      2  C   UNL     1      -9.497  15.905  66.956  0.00  0.00    +0.259 C 
ATOM      3  O   UNL     1      -8.840  15.183  66.182  0.00  0.00    -0.272 OA
ENDROOT
BRANCH   2   4
ATOM      4  C   UNL     1      -9.369  17.441  66.398  0.00  0.00    +0.169 C 
ATOM      5  N   UNL     1     -10.559  17.253  65.333  0.00  0.00    -0.123 NA
BRANCH   4   6
ATOM      6  C   UNL     1     -10.437  18.025  67.553  0.00  0.00    +0.028 C 
BRANCH   6   7
ATOM      7  C   UNL     1      -9.676  19.146  68.220  0.00  0.00    +0.004 C 
BRANCH   7   8
ATOM      8  C   UNL     1      -8.740  19.854  67.263  0.00  0.00    +0.021 C 
BRANCH   8   9
ATOM      9  C   UNL     1      -7.389  20.136  67.870  0.00  0.00    +0.109 C 
ATOM     10  N   UNL     1      -6.806  21.325  67.259  0.00  0.00    -0.131 NA
ENDBRANCH   8   9
ENDBRANCH   7   8
ENDBRANCH   6   7
ENDBRANCH   4   6
ENDBRANCH   2   4
BRANCH   1  12
ATOM     11  C   UNL     1     -11.653  13.947  69.035  0.00  0.00    +0.024 C 
ATOM     12  C   UNL     1     -10.771  13.977  67.619  0.00  0.00    +0.100 C 
BRANCH  12  13
ATOM     13  C   UNL     1     -12.163  14.075  66.702  0.00  0.00    +0.048 C 
BRANCH  13  14
ATOM     14  C   UNL     1     -11.917  12.856  65.860  0.00  0.00    -0.020 A 
ATOM     15  C   UNL     1     -10.677  12.227  65.845  0.00  0.00    -0.004 A 
ATOM     16  C   UNL     1     -10.271  11.433  64.779  0.00  0.00    -0.000 A 
ATOM     17  C   UNL     1     -10.802  11.792  63.544  0.00  0.00    -0.000 A 
ATOM     18  C   UNL     1     -12.171  12.038  63.582  0.00  0.00    -0.000 A 
ATOM     19  C   UNL     1     -12.631  12.757  64.671  0.00  0.00    -0.004 A 
ENDBRANCH  13  14
ENDBRANCH  12  13
ENDBRANCH   1  12
TORSDOF 8
ENDMDL
