MODEL 1
REMARK VINA RESULT:      -6.0      0.000      0.000
REMARK  Name = 
REMARK  4 active torsions:
REMARK  status: ('A' for Active; 'I' for Inactive)
REMARK    1  A    between atoms: N_8  and  C_9
REMARK    2  A    between atoms: C_9  and  O_10
REMARK    3  A    between atoms: O_10  and  C_11
REMARK    4  A    between atoms: C_11  and  C_12
REMARK                            x       y       z     vdW  Elec       q    Type
REMARK                         _______ _______ _______ _____ _____    ______ ____
ROOT
ATOM      1  N   UNL     1     -11.451  16.669  64.237  0.00  0.00    -0.086 NA
ATOM      2  C   UNL     1     -11.339  15.332  64.737  0.00  0.00    +0.261 A 
ATOM      3  N   UNL     1     -12.366  14.516  64.433  0.00  0.00    -0.171 NA
ATOM      4  C   UNL     1     -12.554  13.347  65.085  0.00  0.00    +0.302 A 
ATOM      5  O   UNL     1     -13.103  12.353  64.550  0.00  0.00    -0.263 OA
ATOM      6  C   UNL     1     -11.882  13.160  66.287  0.00  0.00    +0.175 A 
ATOM      7  N   UNL     1     -12.128  12.371  67.352  0.00  0.00    -0.217 NA
ATOM      8  C   UNL     1     -11.534  12.886  68.453  0.00  0.00    +0.182 A 
ATOM      9  N   UNL     1     -10.844  13.987  68.088  0.00  0.00    -0.268 N 
ATOM     10  C   UNL     1     -11.005  14.131  66.751  0.00  0.00    +0.172 A 
ATOM     11  N   UNL     1     -10.597  15.033  65.830  0.00  0.00    -0.192 NA
ENDROOT
BRANCH   9  12
ATOM     12  C   UNL     1     -10.424  15.066  68.979  0.00  0.00    +0.258 C 
BRANCH  12  13
ATOM     13  O   UNL     1     -11.524  15.864  69.261  0.00  0.00    -0.329 OA
BRANCH  13  14
ATOM     14  C   UNL     1     -11.718  15.931  70.650  0.00  0.00    +0.180 C 
BRANCH  14  15
ATOM     15  C   UNL     1     -13.043  15.227  70.912  0.00  0.00    +0.214 C 
ATOM     16  O   UNL     1     -13.639  15.938  71.966  0.00  0.00    -0.218 OA
ENDBRANCH  14  15
ENDBRANCH  13  14
ENDBRANCH  12  13
ENDBRANCH   9  12
TORSDOF 4
ENDMDL
MODEL 2
REMARK VINA RESULT:      -5.9      1.281      1.699
REMARK  Name = 
REMARK  4 active torsions:
REMARK  status: ('A' for Active; 'I' for Inactive)
REMARK    1  A    between atoms: N_8  and  C_9
REMARK    2  A    between atoms: C_9  and  O_10
REMARK    3  A    between atoms: O_10  and  C_11
REMARK    4  A    between atoms: C_11  and  C_12
REMARK                            x       y       z     vdW  Elec       q    Type
REMARK                         _______ _______ _______ _____ _____    ______ ____
ROOT
ATOM      1  N   UNL     1     -11.416  16.690  64.284  0.00  0.00    -0.086 NA
ATOM      2  C   UNL     1     -11.309  15.291  64.571  0.00  0.00    +0.261 A 
ATOM      3  N   UNL     1     -12.379  14.549  64.228  0.00  0.00    -0.171 NA
ATOM      4  C   UNL     1     -12.555  13.299  64.712  0.00  0.00    +0.302 A 
ATOM      5  O   UNL     1     -13.170  12.408  64.079  0.00  0.00    -0.263 OA
ATOM      6  C   UNL     1     -11.804  12.922  65.819  0.00  0.00    +0.175 A 
ATOM      7  N   UNL     1     -11.997  11.987  66.771  0.00  0.00    -0.217 NA
ATOM      8  C   UNL     1     -11.310  12.320  67.888  0.00  0.00    +0.182 A 
ATOM      9  N   UNL     1     -10.615  13.450  67.639  0.00  0.00    -0.268 N 
ATOM     10  C   UNL     1     -10.868  13.795  66.354  0.00  0.00    +0.172 A 
ATOM     11  N   UNL     1     -10.500  14.818  65.549  0.00  0.00    -0.192 NA
ENDROOT
BRANCH   9  12
ATOM     12  C   UNL     1     -10.100  14.375  68.646  0.00  0.00    +0.258 C 
BRANCH  12  13
ATOM     13  O   UNL     1     -11.117  14.666  69.545  0.00  0.00    -0.329 OA
BRANCH  13  14
ATOM     14  C   UNL     1     -11.679  15.915  69.238  0.00  0.00    +0.180 C 
BRANCH  14  15
ATOM     15  C   UNL     1     -10.499  16.833  68.945  0.00  0.00    +0.214 C 
ATOM     16  O   UNL     1     -10.981  17.776  68.024  0.00  0.00    -0.218 OA
ENDBRANCH  14  15
ENDBRANCH  13  14
ENDBRANCH  12  13
ENDBRANCH   9  12
TORSDOF 4
ENDMDL
MODEL 3
REMARK VINA RESULT:      -5.6      3.563      5.985
REMARK  Name = 
REMARK  4 active torsions:
REMARK  status: ('A' for Active; 'I' for Inactive)
REMARK    1  A    between atoms: N_8  and  C_9
REMARK    2  A    between atoms: C_9  and  O_10
REMARK    3  A    between atoms: O_10  and  C_11
REMARK    4  A    between atoms: C_11  and  C_12
REMARK                            x       y       z     vdW  Elec       q    Type
REMARK                         _______ _______ _______ _____ _____    ______ ____
ROOT
ATOM      1  N   UNL     1     -12.507  16.603  74.295  0.00  0.00    -0.086 NA
ATOM      2  C   UNL     1     -12.970  15.852  73.168  0.00  0.00    +0.261 A 
ATOM      3  N   UNL     1     -13.138  14.533  73.384  0.00  0.00    -0.171 NA
ATOM      4  C   UNL     1     -13.260  13.660  72.359  0.00  0.00    +0.302 A 
ATOM      5  O   UNL     1     -13.914  12.593  72.453  0.00  0.00    -0.263 OA
ATOM      6  C   UNL     1     -12.875  14.088  71.094  0.00  0.00    +0.175 A 
ATOM      7  N   UNL     1     -12.478  13.422  69.993  0.00  0.00    -0.217 NA
ATOM      8  C   UNL     1     -11.732  14.233  69.208  0.00  0.00    +0.182 A 
ATOM      9  N   UNL     1     -11.695  15.457  69.776  0.00  0.00    -0.268 N 
ATOM     10  C   UNL     1     -12.441  15.393  70.905  0.00  0.00    +0.172 A 
ATOM     11  N   UNL     1     -12.754  16.260  71.893  0.00  0.00    -0.192 NA
ENDROOT
BRANCH   9  12
ATOM     12  C   UNL     1     -10.691  16.487  69.520  0.00  0.00    +0.258 C 
BRANCH  12  13
ATOM     13  O   UNL     1     -11.115  17.265  68.451  0.00  0.00    -0.329 OA
BRANCH  13  14
ATOM     14  C   UNL     1     -10.196  17.163  67.395  0.00  0.00    +0.180 C 
BRANCH  14  15
ATOM     15  C   UNL     1     -10.306  18.475  66.629  0.00  0.00    +0.214 C 
ATOM     16  O   UNL     1     -11.108  19.305  67.429  0.00  0.00    -0.218 OA
ENDBRANCH  14  15
ENDBRANCH  13  14
ENDBRANCH  12  13
ENDBRANCH   9  12
TORSDOF 4
ENDMDL
MODEL 4
REMARK VINA RESULT:      -5.6      3.013      3.801
REMARK  Name = 
REMARK  4 active torsions:
REMARK  status: ('A' for Active; 'I' for Inactive)
REMARK    1  A    between atoms: N_8  and  C_9
REMARK    2  A    between atoms: C_9  and  O_10
REMARK    3  A    between atoms: O_10  and  C_11
REMARK    4  A    between atoms: C_11  and  C_12
REMARK                            x       y       z     vdW  Elec       q    Type
REMARK                         _______ _______ _______ _____ _____    ______ ____
ROOT
ATOM      1  N   UNL     1     -13.167  12.510  64.641  0.00  0.00    -0.086 NA
ATOM      2  C   UNL     1     -12.527  13.690  65.139  0.00  0.00    +0.261 A 
ATOM      3  N   UNL     1     -12.353  14.675  64.237  0.00  0.00    -0.171 NA
ATOM      4  C   UNL     1     -11.502  15.699  64.468  0.00  0.00    +0.302 A 
ATOM      5  O   UNL     1     -11.670  16.843  63.980  0.00  0.00    -0.263 OA
ATOM      6  C   UNL     1     -10.566  15.548  65.484  0.00  0.00    +0.175 A 
ATOM      7  N   UNL     1      -9.370  16.126  65.710  0.00  0.00    -0.217 NA
ATOM      8  C   UNL     1      -8.612  15.324  66.494  0.00  0.00    +0.182 A 
ATOM      9  N   UNL     1      -9.347  14.243  66.832  0.00  0.00    -0.268 N 
ATOM     10  C   UNL     1     -10.567  14.399  66.263  0.00  0.00    +0.172 A 
ATOM     11  N   UNL     1     -11.698  13.661  66.210  0.00  0.00    -0.192 NA
ENDROOT
BRANCH   9  12
ATOM     12  C   UNL     1      -8.818  12.959  67.287  0.00  0.00    +0.258 C 
BRANCH  12  13
ATOM     13  O   UNL     1      -9.417  12.635  68.497  0.00  0.00    -0.329 OA
BRANCH  13  14
ATOM     14  C   UNL     1      -9.841  11.297  68.472  0.00  0.00    +0.180 C 
BRANCH  14  15
ATOM     15  C   UNL     1     -11.205  11.289  69.152  0.00  0.00    +0.214 C 
ATOM     16  O   UNL     1     -12.126  10.998  68.132  0.00  0.00    -0.218 OA
ENDBRANCH  14  15
ENDBRANCH  13  14
ENDBRANCH  12  13
ENDBRANCH   9  12
TORSDOF 4
ENDMDL
MODEL 5
REMARK VINA RESULT:      -5.6      2.163      3.411
REMARK  Name = 
REMARK  4 active torsions:
REMARK  status: ('A' for Active; 'I' for Inactive)
REMARK    1  A    between atoms: N_8  and  C_9
REMARK    2  A    between atoms: C_9  and  O_10
REMARK    3  A    between atoms: O_10  and  C_11
REMARK    4  A    between atoms: C_11  and  C_12
REMARK                            x       y       z     vdW  Elec       q    Type
REMARK                         _______ _______ _______ _____ _____    ______ ____
ROOT
ATOM      1  N   UNL     1      -8.612  15.877  67.336  0.00  0.00    -0.086 NA
ATOM      2  C   UNL     1      -9.323  15.413  66.183  0.00  0.00    +0.261 A 
ATOM      3  N   UNL     1     -10.192  16.293  65.650  0.00  0.00    -0.171 NA
ATOM      4  C   UNL     1     -11.145  15.900  64.775  0.00  0.00    +0.302 A 
ATOM      5  O   UNL     1     -11.600  16.658  63.884  0.00  0.00    -0.263 OA
ATOM      6  C   UNL     1     -11.430  14.542  64.693  0.00  0.00    +0.175 A 
ATOM      7  N   UNL     1     -12.523  13.867  64.286  0.00  0.00    -0.217 NA
ATOM      8  C   UNL     1     -12.543  12.639  64.854  0.00  0.00    +0.182 A 
ATOM      9  N   UNL     1     -11.421  12.492  65.590  0.00  0.00    -0.268 N 
ATOM     10  C   UNL     1     -10.704  13.634  65.452  0.00  0.00    +0.172 A 
ATOM     11  N   UNL     1      -9.536  14.095  65.952  0.00  0.00    -0.192 NA
ENDROOT
BRANCH   9  12
ATOM     12  C   UNL     1     -11.234  11.539  66.682  0.00  0.00    +0.258 C 
BRANCH  12  13
ATOM     13  O   UNL     1     -12.055  11.907  67.739  0.00  0.00    -0.329 OA
BRANCH  13  14
ATOM     14  C   UNL     1     -11.287  12.064  68.904  0.00  0.00    +0.180 C 
BRANCH  14  15
ATOM     15  C   UNL     1     -11.771  13.361  69.540  0.00  0.00    +0.214 C 
ATOM     16  O   UNL     1     -12.220  14.154  68.472  0.00  0.00    -0.218 OA
ENDBRANCH  14  15
ENDBRANCH  13  14
ENDBRANCH  12  13
ENDBRANCH   9  12
TORSDOF 4
ENDMDL
MODEL 6
REMARK VINA RESULT:      -5.4      2.621      3.221
REMARK  Name = 
REMARK  4 active torsions:
REMARK  status: ('A' for Active; 'I' for Inactive)
REMARK    1  A    between atoms: N_8  and  C_9
REMARK    2  A    between atoms: C_9  and  O_10
REMARK    3  A    between atoms: O_10  and  C_11
REMARK    4  A    between atoms: C_11  and  C_12
REMARK                            x       y       z     vdW  Elec       q    Type
REMARK                         _______ _______ _______ _____ _____    ______ ____
ROOT
ATOM      1  N   UNL     1     -10.794  19.647  67.692  0.00  0.00    -0.086 NA
ATOM      2  C   UNL     1     -10.424  18.266  67.630  0.00  0.00    +0.261 A 
ATOM      3  N   UNL     1     -10.459  17.715  66.401  0.00  0.00    -0.171 NA
ATOM      4  C   UNL     1     -10.445  16.374  66.229  0.00  0.00    +0.302 A 
ATOM      5  O   UNL     1      -9.961  15.827  65.209  0.00  0.00    -0.263 OA
ATOM      6  C   UNL     1     -10.734  15.577  67.330  0.00  0.00    +0.175 A 
ATOM      7  N   UNL     1     -11.201  14.318  67.441  0.00  0.00    -0.217 NA
ATOM      8  C   UNL     1     -11.801  14.153  68.644  0.00  0.00    +0.182 A 
ATOM      9  N   UNL     1     -11.667  15.300  69.344  0.00  0.00    -0.268 N 
ATOM     10  C   UNL     1     -10.965  16.160  68.569  0.00  0.00    +0.172 A 
ATOM     11  N   UNL     1     -10.547  17.439  68.696  0.00  0.00    -0.192 NA
ENDROOT
BRANCH   9  12
ATOM     12  C   UNL     1     -12.500  15.713  70.472  0.00  0.00    +0.258 C 
BRANCH  12  13
ATOM     13  O   UNL     1     -11.675  16.029  71.542  0.00  0.00    -0.329 OA
BRANCH  13  14
ATOM     14  C   UNL     1     -11.982  15.206  72.637  0.00  0.00    +0.180 C 
BRANCH  14  15
ATOM     15  C   UNL     1     -13.094  15.926  73.390  0.00  0.00    +0.214 C 
ATOM     16  O   UNL     1     -12.562  16.208  74.658  0.00  0.00    -0.218 OA
ENDBRANCH  14  15
ENDBRANCH  13  14
ENDBRANCH  12  13
ENDBRANCH   9  12
TORSDOF 4
ENDMDL
MODEL 7
REMARK VINA RESULT:      -5.4      2.533      6.080
REMARK  Name = 
REMARK  4 active torsions:
REMARK  status: ('A' for Active; 'I' for Inactive)
REMARK    1  A    between atoms: N_8  and  C_9
REMARK    2  A    between atoms: C_9  and  O_10
REMARK    3  A    between atoms: O_10  and  C_11
REMARK    4  A    between atoms: C_11  and  C_12
REMARK                            x       y       z     vdW  Elec       q    Type
REMARK                         _______ _______ _______ _____ _____    ______ ____
ROOT
ATOM      1  N   UNL     1     -13.298  10.259  71.107  0.00  0.00    -0.086 NA
ATOM      2  C   UNL     1     -12.748  11.570  71.276  0.00  0.00    +0.261 A 
ATOM      3  N   UNL     1     -13.436  12.383  72.100  0.00  0.00    -0.171 NA
ATOM      4  C   UNL     1     -13.226  13.719  72.111  0.00  0.00    +0.302 A 
ATOM      5  O   UNL     1     -13.402  14.423  73.134  0.00  0.00    -0.263 OA
ATOM      6  C   UNL     1     -12.542  14.275  71.037  0.00  0.00    +0.175 A 
ATOM      7  N   UNL     1     -12.518  15.521  70.524  0.00  0.00    -0.217 NA
ATOM      8  C   UNL     1     -12.142  15.477  69.224  0.00  0.00    +0.182 A 
ATOM      9  N   UNL     1     -11.860  14.195  68.908  0.00  0.00    -0.268 N 
ATOM     10  C   UNL     1     -12.048  13.459  70.029  0.00  0.00    +0.172 A 
ATOM     11  N   UNL     1     -11.959  12.145  70.336  0.00  0.00    -0.192 NA
ENDROOT
BRANCH   9  12
ATOM     12  C   UNL     1     -11.837  13.634  67.559  0.00  0.00    +0.258 C 
BRANCH  12  13
ATOM     13  O   UNL     1     -11.824  14.677  66.643  0.00  0.00    -0.329 OA
BRANCH  13  14
ATOM     14  C   UNL     1     -12.424  14.263  65.443  0.00  0.00    +0.180 C 
BRANCH  14  15
ATOM     15  C   UNL     1     -12.281  12.747  65.417  0.00  0.00    +0.214 C 
ATOM     16  O   UNL     1     -13.190  12.304  64.443  0.00  0.00    -0.218 OA
ENDBRANCH  14  15
ENDBRANCH  13  14
ENDBRANCH  12  13
ENDBRANCH   9  12
TORSDOF 4
ENDMDL
MODEL 8
REMARK VINA RESULT:      -5.3      2.408      5.756
REMARK  Name = 
REMARK  4 active torsions:
REMARK  status: ('A' for Active; 'I' for Inactive)
REMARK    1  A    between atoms: N_8  and  C_9
REMARK    2  A    between atoms: C_9  and  O_10
REMARK    3  A    between atoms: O_10  and  C_11
REMARK    4  A    between atoms: C_11  and  C_12
REMARK                            x       y       z     vdW  Elec       q    Type
REMARK                         _______ _______ _______ _____ _____    ______ ____
ROOT
ATOM      1  N   UNL     1     -12.488  15.869  70.303  0.00  0.00    -0.086 NA
ATOM      2  C   UNL     1     -11.489  15.882  69.277  0.00  0.00    +0.261 A 
ATOM      3  N   UNL     1     -10.923  17.081  69.039  0.00  0.00    -0.171 NA
ATOM      4  C   UNL     1     -10.212  17.314  67.913  0.00  0.00    +0.302 A 
ATOM      5  O   UNL     1      -9.272  18.144  67.865  0.00  0.00    -0.263 OA
ATOM      6  C   UNL     1     -10.355  16.419  66.860  0.00  0.00    +0.175 A 
ATOM      7  N   UNL     1     -10.158  16.540  65.532  0.00  0.00    -0.217 NA
ATOM      8  C   UNL     1     -10.895  15.617  64.871  0.00  0.00    +0.182 A 
ATOM      9  N   UNL     1     -11.530  14.849  65.782  0.00  0.00    -0.268 N 
ATOM     10  C   UNL     1     -11.159  15.297  67.006  0.00  0.00    +0.172 A 
ATOM     11  N   UNL     1     -11.471  14.966  68.279  0.00  0.00    -0.192 NA
ENDROOT
BRANCH   9  12
ATOM     12  C   UNL     1     -12.723  14.042  65.536  0.00  0.00    +0.258 C 
BRANCH  12  13
ATOM     13  O   UNL     1     -12.636  13.498  64.262  0.00  0.00    -0.329 OA
BRANCH  13  14
ATOM     14  C   UNL     1     -12.241  12.153  64.347  0.00  0.00    +0.180 C 
BRANCH  14  15
ATOM     15  C   UNL     1     -11.024  12.027  63.440  0.00  0.00    +0.214 C 
ATOM     16  O   UNL     1     -10.474  10.768  63.729  0.00  0.00    -0.218 OA
ENDBRANCH  14  15
ENDBRANCH  13  14
ENDBRANCH  12  13
ENDBRANCH   9  12
TORSDOF 4
ENDMDL
MODEL 9
REMARK VINA RESULT:      -5.2      4.843      6.939
REMARK  Name = 
REMARK  4 active torsions:
REMARK  status: ('A' for Active; 'I' for Inactive)
REMARK    1  A    between atoms: N_8  and  C_9
REMARK    2  A    between atoms: C_9  and  O_10
REMARK    3  A    between atoms: O_10  and  C_11
REMARK    4  A    between atoms: C_11  and  C_12
REMARK                            x       y       z     vdW  Elec       q    Type
REMARK                         _______ _______ _______ _____ _____    ______ ____
ROOT
ATOM      1  N   UNL     1      -5.394  17.081  66.252  0.00  0.00    -0.086 NA
ATOM      2  C   UNL     1      -6.316  18.169  66.134  0.00  0.00    +0.261 A 
ATOM      3  N   UNL     1      -6.056  19.233  66.918  0.00  0.00    -0.171 NA
ATOM      4  C   UNL     1      -6.989  20.184  67.149  0.00  0.00    +0.302 A 
ATOM      5  O   UNL     1      -6.692  21.379  67.390  0.00  0.00    -0.263 OA
ATOM      6  C   UNL     1      -8.310  19.882  66.846  0.00  0.00    +0.175 A 
ATOM      7  N   UNL     1      -9.480  20.372  67.300  0.00  0.00    -0.217 NA
ATOM      8  C   UNL     1     -10.462  19.457  67.126  0.00  0.00    +0.182 A 
ATOM      9  N   UNL     1      -9.936  18.384  66.496  0.00  0.00    -0.268 N 
ATOM     10  C   UNL     1      -8.629  18.660  66.270  0.00  0.00    +0.172 A 
ATOM     11  N   UNL     1      -7.593  17.988  65.719  0.00  0.00    -0.192 NA
ENDROOT
BRANCH   9  12
ATOM     12  C   UNL     1     -10.498  17.036  66.493  0.00  0.00    +0.258 C 
BRANCH  12  13
ATOM     13  O   UNL     1     -10.660  16.625  65.177  0.00  0.00    -0.329 OA
BRANCH  13  14
ATOM     14  C   UNL     1     -10.669  15.222  65.115  0.00  0.00    +0.180 C 
BRANCH  14  15
ATOM     15  C   UNL     1     -11.999  14.850  64.472  0.00  0.00    +0.214 C 
ATOM     16  O   UNL     1     -12.425  16.009  63.803  0.00  0.00    -0.218 OA
ENDBRANCH  14  15
ENDBRANCH  13  14
ENDBRANCH  12  13
ENDBRANCH   9  12
TORSDOF 4
ENDMDL
