MODEL 1
REMARK VINA RESULT:      -5.5      0.000      0.000
REMARK  Name = 
REMARK  4 active torsions:
REMARK  status: ('A' for Active; 'I' for Inactive)
REMARK    1  A    between atoms: C_2  and  C_3
REMARK    2  A    between atoms: C_3  and  C_4
REMARK    3  A    between atoms: C_3  and  C_8
REMARK    4  A    between atoms: C_4  and  C_5
REMARK                            x       y       z     vdW  Elec       q    Type
REMARK                         _______ _______ _______ _____ _____    ______ ____
ROOT
ATOM      1  C   UNL     1     -12.540  14.034  65.492  0.00  0.00    +0.053 C 
ENDROOT
BRANCH   1   2
ATOM      2  C   UNL     1     -12.227  13.235  66.838  0.00  0.00    -0.020 A 
ATOM      3  C   UNL     1     -11.384  12.158  66.801  0.00  0.00    -0.003 A 
ATOM      4  C   UNL     1     -11.358  11.457  68.010  0.00  0.00    +0.011 A 
ATOM      5  C   UNL     1     -11.579  12.134  69.205  0.00  0.00    +0.058 A 
ATOM      6 CL   UNL     1     -12.195  11.322  70.642  0.00  0.00    -0.082 Cl
ATOM      7  C   UNL     1     -11.545  13.520  69.096  0.00  0.00    +0.011 A 
ATOM      8  C   UNL     1     -11.896  14.104  67.882  0.00  0.00    -0.003 A 
ENDBRANCH   1   2
BRANCH   1  10
ATOM      9  N   UNL     1     -12.442  13.100  63.232  0.00  0.00    -0.131 NA
ATOM     10  C   UNL     1     -12.414  12.688  64.571  0.00  0.00    +0.114 C 
ENDBRANCH   1  10
BRANCH   1  11
ATOM     11  C   UNL     1     -11.004  14.483  65.198  0.00  0.00    +0.120 C 
BRANCH  11  12
ATOM     12  C   UNL     1     -10.886  15.912  65.047  0.00  0.00    +0.365 C 
ATOM     13  O   UNL     1     -11.581  16.426  63.938  0.00  0.00    -0.246 OA
ATOM     14  O   UNL     1      -9.922  16.654  65.374  0.00  0.00    -0.246 OA
ENDBRANCH  11  12
ENDBRANCH   1  11
TORSDOF 4
ENDMDL
MODEL 2
REMARK VINA RESULT:      -5.3      4.881      5.968
REMARK  Name = 
REMARK  4 active torsions:
REMARK  status: ('A' for Active; 'I' for Inactive)
REMARK    1  A    between atoms: C_2  and  C_3
REMARK    2  A    between atoms: C_3  and  C_4
REMARK    3  A    between atoms: C_3  and  C_8
REMARK    4  A    between atoms: C_4  and  C_5
REMARK                            x       y       z     vdW  Elec       q    Type
REMARK                         _______ _______ _______ _____ _____    ______ ____
ROOT
ATOM      1  C   UNL     1     -12.561  15.205  70.924  0.00  0.00    +0.053 C 
ENDROOT
BRANCH   1   2
ATOM      2  C   UNL     1     -12.362  13.621  70.959  0.00  0.00    -0.020 A 
ATOM      3  C   UNL     1     -13.328  12.833  71.522  0.00  0.00    -0.003 A 
ATOM      4  C   UNL     1     -12.927  11.500  71.644  0.00  0.00    +0.011 A 
ATOM      5  C   UNL     1     -12.030  10.961  70.726  0.00  0.00    +0.058 A 
ATOM      6 CL   UNL     1     -10.996   9.591  71.120  0.00  0.00    -0.082 Cl
ATOM      7  C   UNL     1     -11.818  11.750  69.600  0.00  0.00    +0.011 A 
ATOM      8  C   UNL     1     -11.968  13.129  69.711  0.00  0.00    -0.003 A 
ENDBRANCH   1   2
BRANCH   1  10
ATOM      9  N   UNL     1     -11.333  16.566  69.303  0.00  0.00    -0.131 NA
ATOM     10  C   UNL     1     -11.155  15.443  70.122  0.00  0.00    +0.114 C 
ENDBRANCH   1  10
BRANCH   1  11
ATOM     11  C   UNL     1     -11.882  15.494  72.375  0.00  0.00    +0.120 C 
BRANCH  11  12
ATOM     12  C   UNL     1     -12.866  15.860  73.361  0.00  0.00    +0.365 C 
ATOM     13  O   UNL     1     -14.146  16.097  72.827  0.00  0.00    -0.246 OA
ATOM     14  O   UNL     1     -12.693  16.483  74.442  0.00  0.00    -0.246 OA
ENDBRANCH  11  12
ENDBRANCH   1  11
TORSDOF 4
ENDMDL
MODEL 3
REMARK VINA RESULT:      -5.2      1.603      1.950
REMARK  Name = 
REMARK  4 active torsions:
REMARK  status: ('A' for Active; 'I' for Inactive)
REMARK    1  A    between atoms: C_2  and  C_3
REMARK    2  A    between atoms: C_3  and  C_4
REMARK    3  A    between atoms: C_3  and  C_8
REMARK    4  A    between atoms: C_4  and  C_5
REMARK                            x       y       z     vdW  Elec       q    Type
REMARK                         _______ _______ _______ _____ _____    ______ ____
ROOT
ATOM      1  C   UNL     1     -12.079  13.712  65.083  0.00  0.00    +0.053 C 
ENDROOT
BRANCH   1   2
ATOM      2  C   UNL     1     -11.445  12.426  65.786  0.00  0.00    -0.020 A 
ATOM      3  C   UNL     1     -10.116  12.152  65.616  0.00  0.00    -0.003 A 
ATOM      4  C   UNL     1      -9.755  10.905  66.133  0.00  0.00    +0.011 A 
ATOM      5  C   UNL     1     -10.443  10.385  67.224  0.00  0.00    +0.058 A 
ATOM      6 CL   UNL     1     -10.532   8.654  67.537  0.00  0.00    -0.082 Cl
ATOM      7  C   UNL     1     -11.272  11.297  67.870  0.00  0.00    +0.011 A 
ATOM      8  C   UNL     1     -11.812  12.347  67.132  0.00  0.00    -0.003 A 
ENDBRANCH   1   2
BRANCH   1  10
ATOM      9  N   UNL     1     -13.066  12.081  63.548  0.00  0.00    -0.131 NA
ATOM     10  C   UNL     1     -12.029  13.022  63.600  0.00  0.00    +0.114 C 
ENDBRANCH   1  10
BRANCH   1  11
ATOM     11  C   UNL     1     -10.671  14.497  64.860  0.00  0.00    +0.120 C 
BRANCH  11  12
ATOM     12  C   UNL     1     -10.831  15.923  64.987  0.00  0.00    +0.365 C 
ATOM     13  O   UNL     1     -11.597  16.504  63.960  0.00  0.00    -0.246 OA
ATOM     14  O   UNL     1     -10.034  16.756  65.496  0.00  0.00    -0.246 OA
ENDBRANCH  11  12
ENDBRANCH   1  11
TORSDOF 4
ENDMDL
MODEL 4
REMARK VINA RESULT:      -5.2      5.286      6.741
REMARK  Name = 
REMARK  4 active torsions:
REMARK  status: ('A' for Active; 'I' for Inactive)
REMARK    1  A    between atoms: C_2  and  C_3
REMARK    2  A    between atoms: C_3  and  C_4
REMARK    3  A    between atoms: C_3  and  C_8
REMARK    4  A    between atoms: C_4  and  C_5
REMARK                            x       y       z     vdW  Elec       q    Type
REMARK                         _______ _______ _______ _____ _____    ______ ____
ROOT
ATOM      1  C   UNL     1     -13.087  14.199  72.267  0.00  0.00    +0.053 C 
ENDROOT
BRANCH   1   2
ATOM      2  C   UNL     1     -12.639  14.321  70.739  0.00  0.00    -0.020 A 
ATOM      3  C   UNL     1     -11.855  15.372  70.348  0.00  0.00    -0.003 A 
ATOM      4  C   UNL     1     -11.705  15.442  68.961  0.00  0.00    +0.011 A 
ATOM      5  C   UNL     1     -11.742  14.276  68.203  0.00  0.00    +0.058 A 
ATOM      6 CL   UNL     1     -12.205  14.277  66.503  0.00  0.00    -0.082 Cl
ATOM      7  C   UNL     1     -11.663  13.103  68.947  0.00  0.00    +0.011 A 
ATOM      8  C   UNL     1     -12.141  13.108  70.255  0.00  0.00    -0.003 A 
ENDBRANCH   1   2
BRANCH   1  10
ATOM      9  N   UNL     1     -14.954  15.634  71.598  0.00  0.00    -0.131 NA
ATOM     10  C   UNL     1     -14.676  14.291  71.889  0.00  0.00    +0.114 C 
ENDBRANCH   1  10
BRANCH   1  11
ATOM     11  C   UNL     1     -12.987  15.789  72.601  0.00  0.00    +0.120 C 
BRANCH  11  12
ATOM     12  C   UNL     1     -12.394  16.025  73.893  0.00  0.00    +0.365 C 
ATOM     13  O   UNL     1     -12.246  14.864  74.672  0.00  0.00    -0.246 OA
ATOM     14  O   UNL     1     -12.473  17.058  74.611  0.00  0.00    -0.246 OA
ENDBRANCH  11  12
ENDBRANCH   1  11
TORSDOF 4
ENDMDL
MODEL 5
REMARK VINA RESULT:      -5.1      2.455      3.120
REMARK  Name = 
REMARK  4 active torsions:
REMARK  status: ('A' for Active; 'I' for Inactive)
REMARK    1  A    between atoms: C_2  and  C_3
REMARK    2  A    between atoms: C_3  and  C_4
REMARK    3  A    between atoms: C_3  and  C_8
REMARK    4  A    between atoms: C_4  and  C_5
REMARK                            x       y       z     vdW  Elec       q    Type
REMARK                         _______ _______ _______ _____ _____    ______ ____
ROOT
ATOM      1  C   UNL     1     -10.575  14.729  65.507  0.00  0.00    +0.053 C 
ENDROOT
BRANCH   1   2
ATOM      2  C   UNL     1     -11.128  14.745  67.005  0.00  0.00    -0.020 A 
ATOM      3  C   UNL     1     -11.238  13.569  67.694  0.00  0.00    -0.003 A 
ATOM      4  C   UNL     1     -11.908  13.722  68.911  0.00  0.00    +0.011 A 
ATOM      5  C   UNL     1     -11.829  14.931  69.596  0.00  0.00    +0.058 A 
ATOM      6 CL   UNL     1     -13.076  15.452  70.725  0.00  0.00    -0.082 Cl
ATOM      7  C   UNL     1     -10.855  15.800  69.116  0.00  0.00    +0.011 A 
ATOM      8  C   UNL     1     -10.497  15.727  67.772  0.00  0.00    -0.003 A 
ENDBRANCH   1   2
BRANCH   1  10
ATOM      9  N   UNL     1     -11.312  16.702  64.260  0.00  0.00    -0.131 NA
ATOM     10  C   UNL     1     -10.579  16.363  65.406  0.00  0.00    +0.114 C 
ENDBRANCH   1  10
BRANCH   1  11
ATOM     11  C   UNL     1     -12.029  14.595  64.789  0.00  0.00    +0.120 C 
BRANCH  11  12
ATOM     12  C   UNL     1     -12.179  13.326  64.123  0.00  0.00    +0.365 C 
ATOM     13  O   UNL     1     -13.160  12.496  64.694  0.00  0.00    -0.246 OA
ATOM     14  O   UNL     1     -11.302  12.656  63.515  0.00  0.00    -0.246 OA
ENDBRANCH  11  12
ENDBRANCH   1  11
TORSDOF 4
ENDMDL
MODEL 6
REMARK VINA RESULT:      -5.1      2.588      3.314
REMARK  Name = 
REMARK  4 active torsions:
REMARK  status: ('A' for Active; 'I' for Inactive)
REMARK    1  A    between atoms: C_2  and  C_3
REMARK    2  A    between atoms: C_3  and  C_4
REMARK    3  A    between atoms: C_3  and  C_8
REMARK    4  A    between atoms: C_4  and  C_5
REMARK                            x       y       z     vdW  Elec       q    Type
REMARK                         _______ _______ _______ _____ _____    ______ ____
ROOT
ATOM      1  C   UNL     1     -11.473  12.948  67.245  0.00  0.00    +0.053 C 
ENDROOT
BRANCH   1   2
ATOM      2  C   UNL     1     -12.028  13.545  68.618  0.00  0.00    -0.020 A 
ATOM      3  C   UNL     1     -11.761  12.896  69.792  0.00  0.00    -0.003 A 
ATOM      4  C   UNL     1     -12.465  13.433  70.873  0.00  0.00    +0.011 A 
ATOM      5  C   UNL     1     -12.796  14.784  70.879  0.00  0.00    +0.058 A 
ATOM      6 CL   UNL     1     -14.165  15.409  71.794  0.00  0.00    -0.082 Cl
ATOM      7  C   UNL     1     -12.150  15.539  69.905  0.00  0.00    +0.011 A 
ATOM      8  C   UNL     1     -11.765  14.914  68.722  0.00  0.00    -0.003 A 
ENDBRANCH   1   2
BRANCH   1  10
ATOM      9  N   UNL     1      -9.048  12.845  66.930  0.00  0.00    -0.131 NA
ATOM     10  C   UNL     1     -10.038  13.720  67.398  0.00  0.00    +0.114 C 
ENDBRANCH   1  10
BRANCH   1  11
ATOM     11  C   UNL     1     -12.093  14.110  66.289  0.00  0.00    +0.120 C 
BRANCH  11  12
ATOM     12  C   UNL     1     -12.470  13.594  64.998  0.00  0.00    +0.365 C 
ATOM     13  O   UNL     1     -12.613  14.583  64.009  0.00  0.00    -0.246 OA
ATOM     14  O   UNL     1     -13.164  12.575  64.737  0.00  0.00    -0.246 OA
ENDBRANCH  11  12
ENDBRANCH   1  11
TORSDOF 4
ENDMDL
MODEL 7
REMARK VINA RESULT:      -4.8      3.394      4.310
REMARK  Name = 
REMARK  4 active torsions:
REMARK  status: ('A' for Active; 'I' for Inactive)
REMARK    1  A    between atoms: C_2  and  C_3
REMARK    2  A    between atoms: C_3  and  C_4
REMARK    3  A    between atoms: C_3  and  C_8
REMARK    4  A    between atoms: C_4  and  C_5
REMARK                            x       y       z     vdW  Elec       q    Type
REMARK                         _______ _______ _______ _____ _____    ______ ____
ROOT
ATOM      1  C   UNL     1     -12.157  13.369  65.897  0.00  0.00    +0.053 C 
ENDROOT
BRANCH   1   2
ATOM      2  C   UNL     1     -11.597  14.755  66.458  0.00  0.00    -0.020 A 
ATOM      3  C   UNL     1     -11.306  14.875  67.789  0.00  0.00    -0.003 A 
ATOM      4  C   UNL     1     -11.008  16.189  68.156  0.00  0.00    +0.011 A 
ATOM      5  C   UNL     1     -10.422  17.048  67.231  0.00  0.00    +0.058 A 
ATOM      6 CL   UNL     1     -10.593  18.798  67.339  0.00  0.00    -0.082 Cl
ATOM      7  C   UNL     1      -9.944  16.420  66.086  0.00  0.00    +0.011 A 
ATOM      8  C   UNL     1     -10.555  15.243  65.664  0.00  0.00    -0.003 A 
ENDBRANCH   1   2
BRANCH   1  10
ATOM      9  N   UNL     1     -11.772  11.344  67.216  0.00  0.00    -0.131 NA
ATOM     10  C   UNL     1     -11.096  12.492  66.782  0.00  0.00    +0.114 C 
ENDBRANCH   1  10
BRANCH   1  11
ATOM     11  C   UNL     1     -11.216  13.329  64.570  0.00  0.00    +0.120 C 
BRANCH  11  12
ATOM     12  C   UNL     1     -11.619  12.284  63.663  0.00  0.00    +0.365 C 
ATOM     13  O   UNL     1     -13.012  12.153  63.528  0.00  0.00    -0.246 OA
ATOM     14  O   UNL     1     -11.025  11.203  63.405  0.00  0.00    -0.246 OA
ENDBRANCH  11  12
ENDBRANCH   1  11
TORSDOF 4
ENDMDL
MODEL 8
REMARK VINA RESULT:      -4.8      4.544      5.939
REMARK  Name = 
REMARK  4 active torsions:
REMARK  status: ('A' for Active; 'I' for Inactive)
REMARK    1  A    between atoms: C_2  and  C_3
REMARK    2  A    between atoms: C_3  and  C_4
REMARK    3  A    between atoms: C_3  and  C_8
REMARK    4  A    between atoms: C_4  and  C_5
REMARK                            x       y       z     vdW  Elec       q    Type
REMARK                         _______ _______ _______ _____ _____    ______ ____
ROOT
ATOM      1  C   UNL     1     -10.738  16.333  67.079  0.00  0.00    +0.053 C 
ENDROOT
BRANCH   1   2
ATOM      2  C   UNL     1      -9.943  17.717  67.118  0.00  0.00    -0.020 A 
ATOM      3  C   UNL     1     -10.433  18.795  66.434  0.00  0.00    -0.003 A 
ATOM      4  C   UNL     1      -9.538  19.867  66.411  0.00  0.00    +0.011 A 
ATOM      5  C   UNL     1      -8.655  20.053  67.471  0.00  0.00    +0.058 A 
ATOM      6 CL   UNL     1      -7.127  20.906  67.280  0.00  0.00    -0.082 Cl
ATOM      7  C   UNL     1      -8.938  19.283  68.595  0.00  0.00    +0.011 A 
ATOM      8  C   UNL     1      -9.587  18.064  68.424  0.00  0.00    -0.003 A 
ENDBRANCH   1   2
BRANCH   1  10
ATOM      9  N   UNL     1     -10.039  14.247  68.151  0.00  0.00    -0.131 NA
ATOM     10  C   UNL     1      -9.586  15.557  67.943  0.00  0.00    +0.114 C 
ENDBRANCH   1  10
BRANCH   1  11
ATOM     11  C   UNL     1     -10.131  15.828  65.655  0.00  0.00    +0.120 C 
BRANCH  11  12
ATOM     12  C   UNL     1     -11.175  15.526  64.709  0.00  0.00    +0.365 C 
ATOM     13  O   UNL     1     -11.586  16.632  63.943  0.00  0.00    -0.246 OA
ATOM     14  O   UNL     1     -12.087  14.663  64.803  0.00  0.00    -0.246 OA
ENDBRANCH  11  12
ENDBRANCH   1  11
TORSDOF 4
ENDMDL
MODEL 9
REMARK VINA RESULT:      -4.8      3.010      3.982
REMARK  Name = 
REMARK  4 active torsions:
REMARK  status: ('A' for Active; 'I' for Inactive)
REMARK    1  A    between atoms: C_2  and  C_3
REMARK    2  A    between atoms: C_3  and  C_4
REMARK    3  A    between atoms: C_3  and  C_8
REMARK    4  A    between atoms: C_4  and  C_5
REMARK                            x       y       z     vdW  Elec       q    Type
REMARK                         _______ _______ _______ _____ _____    ______ ____
ROOT
ATOM      1  C   UNL     1     -10.679  13.923  68.090  0.00  0.00    +0.053 C 
ENDROOT
BRANCH   1   2
ATOM      2  C   UNL     1     -11.286  14.371  69.497  0.00  0.00    -0.020 A 
ATOM      3  C   UNL     1     -11.860  15.607  69.621  0.00  0.00    -0.003 A 
ATOM      4  C   UNL     1     -12.172  15.922  70.946  0.00  0.00    +0.011 A 
ATOM      5  C   UNL     1     -12.496  14.907  71.840  0.00  0.00    +0.058 A 
ATOM      6 CL   UNL     1     -12.272  15.082  73.578  0.00  0.00    -0.082 Cl
ATOM      7  C   UNL     1     -12.736  13.672  71.245  0.00  0.00    +0.011 A 
ATOM      8  C   UNL     1     -12.101  13.375  70.042  0.00  0.00    -0.003 A 
ENDBRANCH   1   2
BRANCH   1  10
ATOM      9  N   UNL     1      -8.968  15.178  66.871  0.00  0.00    -0.131 NA
ATOM     10  C   UNL     1      -9.944  15.366  67.859  0.00  0.00    +0.114 C 
ENDBRANCH   1  10
BRANCH   1  11
ATOM     11  C   UNL     1     -11.977  14.346  67.202  0.00  0.00    +0.120 C 
BRANCH  11  12
ATOM     12  C   UNL     1     -12.202  13.426  66.116  0.00  0.00    +0.365 C 
ATOM     13  O   UNL     1     -13.105  13.899  65.148  0.00  0.00    -0.246 OA
ATOM     14  O   UNL     1     -12.167  12.166  66.141  0.00  0.00    -0.246 OA
ENDBRANCH  11  12
ENDBRANCH   1  11
TORSDOF 4
ENDMDL
