MODEL 1
REMARK VINA RESULT:      -5.6      0.000      0.000
REMARK  Name = 
REMARK  0 active torsions:
REMARK  status: ('A' for Active; 'I' for Inactive)
REMARK                            x       y       z     vdW  Elec       q    Type
REMARK                         _______ _______ _______ _____ _____    ______ ____
ROOT
ATOM      1  N   UNL     1     -11.203  16.761  64.255  0.00  0.00    +0.006 NA
ATOM      2  N   UNL     1     -12.344  15.958  64.071  0.00  0.00    -0.108 NA
ATOM      3  C   UNL     1     -12.267  14.542  64.257  0.00  0.00    +0.189 A 
ATOM      4  C   UNL     1     -11.533  14.057  65.333  0.00  0.00    +0.038 A 
ATOM      5  C   UNL     1     -10.989  12.784  65.285  0.00  0.00    +0.024 A 
ATOM      6  C   UNL     1      -9.857  12.526  66.047  0.00  0.00    +0.002 A 
ATOM      7  C   UNL     1      -9.676  13.287  67.189  0.00  0.00    +0.000 A 
ATOM      8  C   UNL     1     -10.579  14.284  67.511  0.00  0.00    +0.000 A 
ATOM      9  C   UNL     1     -11.418  11.963  64.273  0.00  0.00    +0.122 A 
ATOM     10  N   UNL     1     -12.378  12.383  63.432  0.00  0.00    -0.145 NA
ATOM     11  C   UNL     1     -11.338  14.814  66.473  0.00  0.00    +0.003 A 
ATOM     12  N   UNL     1     -12.625  13.671  63.286  0.00  0.00    -0.130 NA
ENDROOT
TORSDOF 0
ENDMDL
MODEL 2
REMARK VINA RESULT:      -5.4      1.350      3.187
REMARK  Name = 
REMARK  0 active torsions:
REMARK  status: ('A' for Active; 'I' for Inactive)
REMARK                            x       y       z     vdW  Elec       q    Type
REMARK                         _______ _______ _______ _____ _____    ______ ____
ROOT
ATOM      1  N   UNL     1     -13.127  13.429  64.894  0.00  0.00    +0.006 NA
ATOM      2  N   UNL     1     -12.486  14.300  63.995  0.00  0.00    -0.108 NA
ATOM      3  C   UNL     1     -11.557  15.275  64.474  0.00  0.00    +0.189 A 
ATOM      4  C   UNL     1     -10.661  14.900  65.468  0.00  0.00    +0.038 A 
ATOM      5  C   UNL     1     -10.127  15.855  66.318  0.00  0.00    +0.024 A 
ATOM      6  C   UNL     1      -9.714  15.452  67.581  0.00  0.00    +0.002 A 
ATOM      7  C   UNL     1      -9.321  14.132  67.727  0.00  0.00    +0.000 A 
ATOM      8  C   UNL     1      -9.384  13.265  66.652  0.00  0.00    +0.000 A 
ATOM      9  C   UNL     1     -10.315  17.170  65.972  0.00  0.00    +0.122 A 
ATOM     10  N   UNL     1     -10.929  17.476  64.817  0.00  0.00    -0.145 NA
ATOM     11  C   UNL     1     -10.270  13.585  65.628  0.00  0.00    +0.003 A 
ATOM     12  N   UNL     1     -11.706  16.595  64.216  0.00  0.00    -0.130 NA
ENDROOT
TORSDOF 0
ENDMDL
MODEL 3
REMARK VINA RESULT:      -5.4      2.186      3.920
REMARK  Name = 
REMARK  0 active torsions:
REMARK  status: ('A' for Active; 'I' for Inactive)
REMARK                            x       y       z     vdW  Elec       q    Type
REMARK                         _______ _______ _______ _____ _____    ______ ____
ROOT
ATOM      1  N   UNL     1     -11.239  16.817  64.369  0.00  0.00    +0.006 NA
ATOM      2  N   UNL     1     -10.410  17.283  65.405  0.00  0.00    -0.108 NA
ATOM      3  C   UNL     1     -10.529  16.741  66.723  0.00  0.00    +0.189 A 
ATOM      4  C   UNL     1     -10.705  15.369  66.858  0.00  0.00    +0.038 A 
ATOM      5  C   UNL     1     -11.330  14.856  67.983  0.00  0.00    +0.024 A 
ATOM      6  C   UNL     1     -11.980  13.634  67.873  0.00  0.00    +0.002 A 
ATOM      7  C   UNL     1     -11.519  12.757  66.907  0.00  0.00    +0.000 A 
ATOM      8  C   UNL     1     -10.478  13.124  66.074  0.00  0.00    +0.000 A 
ATOM      9  C   UNL     1     -11.519  15.717  69.035  0.00  0.00    +0.122 A 
ATOM     10  N   UNL     1     -11.040  16.971  68.968  0.00  0.00    -0.145 NA
ATOM     11  C   UNL     1     -10.257  14.485  65.894  0.00  0.00    +0.003 A 
ATOM     12  N   UNL     1     -10.766  17.522  67.801  0.00  0.00    -0.130 NA
ENDROOT
TORSDOF 0
ENDMDL
MODEL 4
REMARK VINA RESULT:      -5.4      1.645      2.624
REMARK  Name = 
REMARK  0 active torsions:
REMARK  status: ('A' for Active; 'I' for Inactive)
REMARK                            x       y       z     vdW  Elec       q    Type
REMARK                         _______ _______ _______ _____ _____    ______ ____
ROOT
ATOM      1  N   UNL     1      -8.224  16.284  66.199  0.00  0.00    +0.006 NA
ATOM      2  N   UNL     1      -9.355  17.051  65.866  0.00  0.00    -0.108 NA
ATOM      3  C   UNL     1     -10.574  16.411  65.483  0.00  0.00    +0.189 A 
ATOM      4  C   UNL     1     -10.977  15.283  66.188  0.00  0.00    +0.038 A 
ATOM      5  C   UNL     1     -11.799  14.345  65.587  0.00  0.00    +0.024 A 
ATOM      6  C   UNL     1     -11.742  13.034  66.042  0.00  0.00    +0.002 A 
ATOM      7  C   UNL     1     -11.353  12.837  67.356  0.00  0.00    +0.000 A 
ATOM      8  C   UNL     1     -11.004  13.916  68.146  0.00  0.00    +0.000 A 
ATOM      9  C   UNL     1     -12.387  14.704  64.400  0.00  0.00    +0.122 A 
ATOM     10  N   UNL     1     -12.209  15.944  63.913  0.00  0.00    -0.145 NA
ATOM     11  C   UNL     1     -10.586  15.072  67.497  0.00  0.00    +0.003 A 
ATOM     12  N   UNL     1     -11.185  16.677  64.306  0.00  0.00    -0.130 NA
ENDROOT
TORSDOF 0
ENDMDL
MODEL 5
REMARK VINA RESULT:      -5.2      2.054      2.607
REMARK  Name = 
REMARK  0 active torsions:
REMARK  status: ('A' for Active; 'I' for Inactive)
REMARK                            x       y       z     vdW  Elec       q    Type
REMARK                         _______ _______ _______ _____ _____    ______ ____
ROOT
ATOM      1  N   UNL     1     -10.840  14.500  67.597  0.00  0.00    +0.006 NA
ATOM      2  N   UNL     1     -12.078  14.415  66.934  0.00  0.00    -0.108 NA
ATOM      3  C   UNL     1     -12.224  13.582  65.782  0.00  0.00    +0.189 A 
ATOM      4  C   UNL     1     -11.624  12.328  65.795  0.00  0.00    +0.038 A 
ATOM      5  C   UNL     1     -11.275  11.713  64.603  0.00  0.00    +0.024 A 
ATOM      6  C   UNL     1     -10.233  10.795  64.620  0.00  0.00    +0.002 A 
ATOM      7  C   UNL     1      -9.995  10.130  65.810  0.00  0.00    +0.000 A 
ATOM      8  C   UNL     1     -10.752  10.417  66.931  0.00  0.00    +0.000 A 
ATOM      9  C   UNL     1     -11.773  12.265  63.450  0.00  0.00    +0.122 A 
ATOM     10  N   UNL     1     -12.618  13.308  63.518  0.00  0.00    -0.145 NA
ATOM     11  C   UNL     1     -11.372  11.661  66.978  0.00  0.00    +0.003 A 
ATOM     12  N   UNL     1     -12.662  14.066  64.597  0.00  0.00    -0.130 NA
ENDROOT
TORSDOF 0
ENDMDL
MODEL 6
REMARK VINA RESULT:      -5.2      5.887      6.859
REMARK  Name = 
REMARK  0 active torsions:
REMARK  status: ('A' for Active; 'I' for Inactive)
REMARK                            x       y       z     vdW  Elec       q    Type
REMARK                         _______ _______ _______ _____ _____    ______ ____
ROOT
ATOM      1  N   UNL     1     -12.258  15.065  74.041  0.00  0.00    +0.006 NA
ATOM      2  N   UNL     1     -12.964  15.767  73.047  0.00  0.00    -0.108 NA
ATOM      3  C   UNL     1     -12.860  15.377  71.676  0.00  0.00    +0.189 A 
ATOM      4  C   UNL     1     -12.870  14.020  71.374  0.00  0.00    +0.038 A 
ATOM      5  C   UNL     1     -12.271  13.563  70.212  0.00  0.00    +0.024 A 
ATOM      6  C   UNL     1     -11.803  12.256  70.187  0.00  0.00    +0.002 A 
ATOM      7  C   UNL     1     -12.427  11.344  71.020  0.00  0.00    +0.000 A 
ATOM      8  C   UNL     1     -13.445  11.754  71.861  0.00  0.00    +0.000 A 
ATOM      9  C   UNL     1     -11.914  14.508  69.283  0.00  0.00    +0.122 A 
ATOM     10  N   UNL     1     -12.217  15.800  69.494  0.00  0.00    -0.145 NA
ATOM     11  C   UNL     1     -13.482  13.101  72.205  0.00  0.00    +0.003 A 
ATOM     12  N   UNL     1     -12.466  16.241  70.712  0.00  0.00    -0.130 NA
ENDROOT
TORSDOF 0
ENDMDL
MODEL 7
REMARK VINA RESULT:      -5.1      2.206      3.502
REMARK  Name = 
REMARK  0 active torsions:
REMARK  status: ('A' for Active; 'I' for Inactive)
REMARK                            x       y       z     vdW  Elec       q    Type
REMARK                         _______ _______ _______ _____ _____    ______ ____
ROOT
ATOM      1  N   UNL     1     -12.999  12.046  63.410  0.00  0.00    +0.006 NA
ATOM      2  N   UNL     1     -12.412  13.203  63.953  0.00  0.00    -0.108 NA
ATOM      3  C   UNL     1     -11.947  13.211  65.305  0.00  0.00    +0.189 A 
ATOM      4  C   UNL     1     -11.274  12.091  65.777  0.00  0.00    +0.038 A 
ATOM      5  C   UNL     1     -11.265  11.807  67.133  0.00  0.00    +0.024 A 
ATOM      6  C   UNL     1     -11.102  10.484  67.524  0.00  0.00    +0.002 A 
ATOM      7  C   UNL     1     -10.411   9.650  66.662  0.00  0.00    +0.000 A 
ATOM      8  C   UNL     1      -9.950  10.131  65.451  0.00  0.00    +0.000 A 
ATOM      9  C   UNL     1     -11.713  12.791  67.978  0.00  0.00    +0.122 A 
ATOM     10  N   UNL     1     -12.065  13.989  67.481  0.00  0.00    -0.145 NA
ATOM     11  C   UNL     1     -10.590  11.247  64.924  0.00  0.00    +0.003 A 
ATOM     12  N   UNL     1     -12.383  14.121  66.207  0.00  0.00    -0.130 NA
ENDROOT
TORSDOF 0
ENDMDL
MODEL 8
REMARK VINA RESULT:      -5.1      5.613      6.401
REMARK  Name = 
REMARK  0 active torsions:
REMARK  status: ('A' for Active; 'I' for Inactive)
REMARK                            x       y       z     vdW  Elec       q    Type
REMARK                         _______ _______ _______ _____ _____    ______ ____
ROOT
ATOM      1  N   UNL     1     -14.725  15.522  71.795  0.00  0.00    +0.006 NA
ATOM      2  N   UNL     1     -14.112  14.519  72.567  0.00  0.00    -0.108 NA
ATOM      3  C   UNL     1     -13.251  13.558  71.949  0.00  0.00    +0.189 A 
ATOM      4  C   UNL     1     -12.361  13.999  70.978  0.00  0.00    +0.038 A 
ATOM      5  C   UNL     1     -11.902  13.124  70.008  0.00  0.00    +0.024 A 
ATOM      6  C   UNL     1     -11.499  13.650  68.787  0.00  0.00    +0.002 A 
ATOM      7  C   UNL     1     -11.036  14.955  68.784  0.00  0.00    +0.000 A 
ATOM      8  C   UNL     1     -11.024  15.692  69.953  0.00  0.00    +0.000 A 
ATOM      9  C   UNL     1     -12.156  11.790  70.204  0.00  0.00    +0.122 A 
ATOM     10  N   UNL     1     -12.758  11.383  71.335  0.00  0.00    -0.145 NA
ATOM     11  C   UNL     1     -11.900  15.302  70.960  0.00  0.00    +0.003 A 
ATOM     12  N   UNL     1     -13.468  12.227  72.058  0.00  0.00    -0.130 NA
ENDROOT
TORSDOF 0
ENDMDL
MODEL 9
REMARK VINA RESULT:      -5.0      2.227      3.150
REMARK  Name = 
REMARK  0 active torsions:
REMARK  status: ('A' for Active; 'I' for Inactive)
REMARK                            x       y       z     vdW  Elec       q    Type
REMARK                         _______ _______ _______ _____ _____    ______ ____
ROOT
ATOM      1  N   UNL     1     -11.735  12.406  68.484  0.00  0.00    +0.006 NA
ATOM      2  N   UNL     1     -11.866  11.831  67.207  0.00  0.00    -0.108 NA
ATOM      3  C   UNL     1     -11.797  12.649  66.036  0.00  0.00    +0.189 A 
ATOM      4  C   UNL     1     -10.839  13.655  65.991  0.00  0.00    +0.038 A 
ATOM      5  C   UNL     1     -11.037  14.767  65.189  0.00  0.00    +0.024 A 
ATOM      6  C   UNL     1     -10.412  15.954  65.548  0.00  0.00    +0.002 A 
ATOM      7  C   UNL     1      -9.239  15.856  66.276  0.00  0.00    +0.000 A 
ATOM      8  C   UNL     1      -8.755  14.616  66.651  0.00  0.00    +0.000 A 
ATOM      9  C   UNL     1     -12.061  14.702  64.278  0.00  0.00    +0.122 A 
ATOM     10  N   UNL     1     -12.769  13.567  64.148  0.00  0.00    -0.145 NA
ATOM     11  C   UNL     1      -9.669  13.571  66.722  0.00  0.00    +0.003 A 
ATOM     12  N   UNL     1     -12.792  12.675  65.120  0.00  0.00    -0.130 NA
ENDROOT
TORSDOF 0
ENDMDL
