MODEL 1
REMARK VINA RESULT:      -6.0      0.000      0.000
REMARK  Name = 
REMARK  12 active torsions:
REMARK  status: ('A' for Active; 'I' for Inactive)
REMARK    1  A    between atoms: N_2  and  C_3
REMARK    2  A    between atoms: C_6  and  C_7
REMARK    3  A    between atoms: C_8  and  C_9
REMARK    4  A    between atoms: C_12  and  O_13
REMARK    5  A    between atoms: O_13  and  C_14
REMARK    6  A    between atoms: C_14  and  C_15
REMARK    7  A    between atoms: C_15  and  O_16
REMARK    8  A    between atoms: O_16  and  C_17
REMARK    9  A    between atoms: C_17  and  C_18
REMARK   10  A    between atoms: C_18  and  O_19
REMARK   11  A    between atoms: O_19  and  C_20
REMARK   12  A    between atoms: C_20  and  C_21
REMARK                            x       y       z     vdW  Elec       q    Type
REMARK                         _______ _______ _______ _____ _____    ______ ____
ROOT
ATOM      1  C   UNL     1     -11.315  13.153  67.280  0.00  0.00    +0.000 A 
ATOM      2  C   UNL     1      -9.955  13.372  67.104  0.00  0.00    +0.003 A 
ATOM      3  C   UNL     1      -9.508  14.448  66.376  0.00  0.00    +0.037 A 
ATOM      4  C   UNL     1     -10.378  15.197  65.595  0.00  0.00    +0.139 A 
ATOM      5  C   UNL     1     -11.639  14.643  65.411  0.00  0.00    +0.037 A 
ATOM      6  C   UNL     1     -12.138  13.706  66.308  0.00  0.00    +0.003 A 
ENDROOT
BRANCH   1   8
ATOM      7  C   UNL     1     -10.933  11.461  68.993  0.00  0.00    +0.000 C 
ATOM      8  C   UNL     1     -11.672  11.922  67.994  0.00  0.00    +0.000 C 
BRANCH   7  12
ATOM      9  C   UNL     1     -13.304   9.508  71.754  0.00  0.00    +0.065 A 
ATOM     10  C   UNL     1     -13.349  10.895  71.688  0.00  0.00    +0.016 A 
ATOM     11  C   UNL     1     -12.356  11.617  71.037  0.00  0.00    +0.001 A 
ATOM     12  C   UNL     1     -11.562  10.876  70.170  0.00  0.00    +0.000 A 
ATOM     13  C   UNL     1     -11.174   9.630  70.631  0.00  0.00    +0.001 A 
ATOM     14  C   UNL     1     -12.073   8.944  71.431  0.00  0.00    +0.016 A 
BRANCH   9  16
ATOM     15  C   UNL     1     -14.848   7.566  71.905  0.00  0.00    +0.135 C 
ATOM     16  N   UNL     1     -14.294   8.788  72.480  0.00  0.00    -0.236 NA
ENDBRANCH   9  16
ENDBRANCH   7  12
ENDBRANCH   1   8
BRANCH   4  17
ATOM     17  O   UNL     1     -10.115  16.544  65.396  0.00  0.00    -0.473 OA
BRANCH  17  18
ATOM     18  C   UNL     1      -9.486  17.374  66.340  0.00  0.00    +0.237 C 
BRANCH  18  19
ATOM     19  C   UNL     1     -10.397  17.824  67.447  0.00  0.00    +0.189 C 
BRANCH  19  20
ATOM     20  O   UNL     1     -10.121  17.217  68.668  0.00  0.00    -0.347 OA
BRANCH  20  21
ATOM     21  C   UNL     1     -11.161  16.430  69.124  0.00  0.00    +0.174 C 
BRANCH  21  22
ATOM     22  C   UNL     1     -10.755  15.432  70.169  0.00  0.00    +0.174 C 
BRANCH  22  23
ATOM     23  O   UNL     1     -11.610  15.425  71.255  0.00  0.00    -0.348 OA
BRANCH  23  24
ATOM     24  C   UNL     1     -12.949  15.395  70.905  0.00  0.00    +0.180 C 
BRANCH  24  25
ATOM     25  C   UNL     1     -13.744  15.377  72.195  0.00  0.00    +0.225 C 
ATOM     26  F   UNL     1     -14.176  14.107  72.508  0.00  0.00    -0.232 F 
ENDBRANCH  24  25
ENDBRANCH  23  24
ENDBRANCH  22  23
ENDBRANCH  21  22
ENDBRANCH  20  21
ENDBRANCH  19  20
ENDBRANCH  18  19
ENDBRANCH  17  18
ENDBRANCH   4  17
TORSDOF 12
ENDMDL
MODEL 2
REMARK VINA RESULT:      -5.7      2.688      4.459
REMARK  Name = 
REMARK  12 active torsions:
REMARK  status: ('A' for Active; 'I' for Inactive)
REMARK    1  A    between atoms: N_2  and  C_3
REMARK    2  A    between atoms: C_6  and  C_7
REMARK    3  A    between atoms: C_8  and  C_9
REMARK    4  A    between atoms: C_12  and  O_13
REMARK    5  A    between atoms: O_13  and  C_14
REMARK    6  A    between atoms: C_14  and  C_15
REMARK    7  A    between atoms: C_15  and  O_16
REMARK    8  A    between atoms: O_16  and  C_17
REMARK    9  A    between atoms: C_17  and  C_18
REMARK   10  A    between atoms: C_18  and  O_19
REMARK   11  A    between atoms: O_19  and  C_20
REMARK   12  A    between atoms: C_20  and  C_21
REMARK                            x       y       z     vdW  Elec       q    Type
REMARK                         _______ _______ _______ _____ _____    ______ ____
ROOT
ATOM      1  C   UNL     1     -12.025  13.441  70.033  0.00  0.00    +0.000 A 
ATOM      2  C   UNL     1     -12.200  14.604  70.771  0.00  0.00    +0.003 A 
ATOM      3  C   UNL     1     -11.887  15.828  70.232  0.00  0.00    +0.037 A 
ATOM      4  C   UNL     1     -11.165  15.928  69.049  0.00  0.00    +0.139 A 
ATOM      5  C   UNL     1     -10.584  14.746  68.606  0.00  0.00    +0.037 A 
ATOM      6  C   UNL     1     -11.082  13.515  69.017  0.00  0.00    +0.003 A 
ENDROOT
BRANCH   1   8
ATOM      7  C   UNL     1     -12.316  11.022  70.118  0.00  0.00    +0.000 C 
ATOM      8  C   UNL     1     -12.303  12.189  70.746  0.00  0.00    +0.000 C 
BRANCH   7  12
ATOM      9  C   UNL     1     -10.650   8.180  72.610  0.00  0.00    +0.065 A 
ATOM     10  C   UNL     1      -9.873   8.726  71.596  0.00  0.00    +0.016 A 
ATOM     11  C   UNL     1     -10.453   9.416  70.537  0.00  0.00    +0.001 A 
ATOM     12  C   UNL     1     -11.760   9.833  70.753  0.00  0.00    +0.000 A 
ATOM     13  C   UNL     1     -12.587   8.916  71.378  0.00  0.00    +0.001 A 
ATOM     14  C   UNL     1     -12.008   8.085  72.324  0.00  0.00    +0.016 A 
BRANCH   9  16
ATOM     15  C   UNL     1      -9.916   5.976  73.494  0.00  0.00    +0.135 C 
ATOM     16  N   UNL     1     -10.046   7.421  73.652  0.00  0.00    -0.236 NA
ENDBRANCH   9  16
ENDBRANCH   7  12
ENDBRANCH   1   8
BRANCH   4  17
ATOM     17  O   UNL     1     -11.383  17.015  68.217  0.00  0.00    -0.473 OA
BRANCH  17  18
ATOM     18  C   UNL     1     -10.365  17.854  67.730  0.00  0.00    +0.237 C 
BRANCH  18  19
ATOM     19  C   UNL     1     -10.295  17.905  66.229  0.00  0.00    +0.189 C 
BRANCH  19  20
ATOM     20  O   UNL     1      -9.973  16.681  65.652  0.00  0.00    -0.347 OA
BRANCH  20  21
ATOM     21  C   UNL     1     -11.016  16.139  64.925  0.00  0.00    +0.174 C 
BRANCH  21  22
ATOM     22  C   UNL     1     -11.042  14.639  64.928  0.00  0.00    +0.174 C 
BRANCH  22  23
ATOM     23  O   UNL     1     -12.245  14.131  65.381  0.00  0.00    -0.348 OA
BRANCH  23  24
ATOM     24  C   UNL     1     -12.444  12.802  65.050  0.00  0.00    +0.180 C 
BRANCH  24  25
ATOM     25  C   UNL     1     -12.113  12.656  63.579  0.00  0.00    +0.225 C 
ATOM     26  F   UNL     1     -12.753  11.572  63.019  0.00  0.00    -0.232 F 
ENDBRANCH  24  25
ENDBRANCH  23  24
ENDBRANCH  22  23
ENDBRANCH  21  22
ENDBRANCH  20  21
ENDBRANCH  19  20
ENDBRANCH  18  19
ENDBRANCH  17  18
ENDBRANCH   4  17
TORSDOF 12
ENDMDL
MODEL 3
REMARK VINA RESULT:      -5.6      1.507      1.936
REMARK  Name = 
REMARK  12 active torsions:
REMARK  status: ('A' for Active; 'I' for Inactive)
REMARK    1  A    between atoms: N_2  and  C_3
REMARK    2  A    between atoms: C_6  and  C_7
REMARK    3  A    between atoms: C_8  and  C_9
REMARK    4  A    between atoms: C_12  and  O_13
REMARK    5  A    between atoms: O_13  and  C_14
REMARK    6  A    between atoms: C_14  and  C_15
REMARK    7  A    between atoms: C_15  and  O_16
REMARK    8  A    between atoms: O_16  and  C_17
REMARK    9  A    between atoms: C_17  and  C_18
REMARK   10  A    between atoms: C_18  and  O_19
REMARK   11  A    between atoms: O_19  and  C_20
REMARK   12  A    between atoms: C_20  and  C_21
REMARK                            x       y       z     vdW  Elec       q    Type
REMARK                         _______ _______ _______ _____ _____    ______ ____
ROOT
ATOM      1  C   UNL     1     -11.052  13.623  66.887  0.00  0.00    +0.000 A 
ATOM      2  C   UNL     1      -9.675  13.751  67.016  0.00  0.00    +0.003 A 
ATOM      3  C   UNL     1      -9.031  14.875  66.559  0.00  0.00    +0.037 A 
ATOM      4  C   UNL     1      -9.681  15.793  65.744  0.00  0.00    +0.139 A 
ATOM      5  C   UNL     1     -10.905  15.375  65.236  0.00  0.00    +0.037 A 
ATOM      6  C   UNL     1     -11.627  14.369  65.867  0.00  0.00    +0.003 A 
ENDROOT
BRANCH   1   8
ATOM      7  C   UNL     1     -10.845  11.280  67.528  0.00  0.00    +0.000 C 
ATOM      8  C   UNL     1     -11.614  12.340  67.325  0.00  0.00    +0.000 C 
BRANCH   7  12
ATOM      9  C   UNL     1     -10.886   9.137  71.059  0.00  0.00    +0.065 A 
ATOM     10  C   UNL     1     -10.426   8.521  69.902  0.00  0.00    +0.016 A 
ATOM     11  C   UNL     1     -10.694   9.055  68.647  0.00  0.00    +0.001 A 
ATOM     12  C   UNL     1     -11.103  10.383  68.647  0.00  0.00    +0.000 A 
ATOM     13  C   UNL     1     -12.004  10.732  69.638  0.00  0.00    +0.001 A 
ATOM     14  C   UNL     1     -11.878  10.093  70.861  0.00  0.00    +0.016 A 
BRANCH   9  16
ATOM     15  C   UNL     1     -11.116   7.177  72.571  0.00  0.00    +0.135 C 
ATOM     16  N   UNL     1     -10.658   8.543  72.332  0.00  0.00    -0.236 NA
ENDBRANCH   9  16
ENDBRANCH   7  12
ENDBRANCH   1   8
BRANCH   4  17
ATOM     17  O   UNL     1      -9.310  17.127  65.805  0.00  0.00    -0.473 OA
BRANCH  17  18
ATOM     18  C   UNL     1     -10.113  18.147  66.346  0.00  0.00    +0.237 C 
BRANCH  18  19
ATOM     19  C   UNL     1     -10.178  18.129  67.847  0.00  0.00    +0.189 C 
BRANCH  19  20
ATOM     20  O   UNL     1     -11.183  17.306  68.343  0.00  0.00    -0.347 OA
BRANCH  20  21
ATOM     21  C   UNL     1     -10.784  16.577  69.448  0.00  0.00    +0.174 C 
BRANCH  21  22
ATOM     22  C   UNL     1     -11.852  15.681  70.003  0.00  0.00    +0.174 C 
BRANCH  22  23
ATOM     23  O   UNL     1     -11.842  15.639  71.384  0.00  0.00    -0.348 OA
BRANCH  23  24
ATOM     24  C   UNL     1     -13.108  15.625  71.946  0.00  0.00    +0.180 C 
BRANCH  24  25
ATOM     25  C   UNL     1     -12.937  15.877  73.430  0.00  0.00    +0.225 C 
ATOM     26  F   UNL     1     -12.017  15.017  73.989  0.00  0.00    -0.232 F 
ENDBRANCH  24  25
ENDBRANCH  23  24
ENDBRANCH  22  23
ENDBRANCH  21  22
ENDBRANCH  20  21
ENDBRANCH  19  20
ENDBRANCH  18  19
ENDBRANCH  17  18
ENDBRANCH   4  17
TORSDOF 12
ENDMDL
MODEL 4
REMARK VINA RESULT:      -5.5      2.237      4.241
REMARK  Name = 
REMARK  12 active torsions:
REMARK  status: ('A' for Active; 'I' for Inactive)
REMARK    1  A    between atoms: N_2  and  C_3
REMARK    2  A    between atoms: C_6  and  C_7
REMARK    3  A    between atoms: C_8  and  C_9
REMARK    4  A    between atoms: C_12  and  O_13
REMARK    5  A    between atoms: O_13  and  C_14
REMARK    6  A    between atoms: C_14  and  C_15
REMARK    7  A    between atoms: C_15  and  O_16
REMARK    8  A    between atoms: O_16  and  C_17
REMARK    9  A    between atoms: C_17  and  C_18
REMARK   10  A    between atoms: C_18  and  O_19
REMARK   11  A    between atoms: O_19  and  C_20
REMARK   12  A    between atoms: C_20  and  C_21
REMARK                            x       y       z     vdW  Elec       q    Type
REMARK                         _______ _______ _______ _____ _____    ______ ____
ROOT
ATOM      1  C   UNL     1     -12.360  13.196  70.902  0.00  0.00    +0.000 A 
ATOM      2  C   UNL     1     -11.991  13.227  69.564  0.00  0.00    +0.003 A 
ATOM      3  C   UNL     1     -11.708  14.420  68.944  0.00  0.00    +0.037 A 
ATOM      4  C   UNL     1     -12.017  15.633  69.546  0.00  0.00    +0.139 A 
ATOM      5  C   UNL     1     -12.835  15.549  70.666  0.00  0.00    +0.037 A 
ATOM      6  C   UNL     1     -12.920  14.367  71.393  0.00  0.00    +0.003 A 
ENDROOT
BRANCH   1   8
ATOM      7  C   UNL     1     -12.700  10.794  70.664  0.00  0.00    +0.000 C 
ATOM      8  C   UNL     1     -12.729  11.877  71.428  0.00  0.00    +0.000 C 
BRANCH   7  12
ATOM      9  C   UNL     1     -11.369   6.943  71.348  0.00  0.00    +0.065 A 
ATOM     10  C   UNL     1     -12.683   7.268  71.663  0.00  0.00    +0.016 A 
ATOM     11  C   UNL     1     -13.089   8.593  71.776  0.00  0.00    +0.001 A 
ATOM     12  C   UNL     1     -12.230   9.522  71.201  0.00  0.00    +0.000 A 
ATOM     13  C   UNL     1     -10.881   9.303  71.415  0.00  0.00    +0.001 A 
ATOM     14  C   UNL     1     -10.457   7.985  71.482  0.00  0.00    +0.016 A 
BRANCH   9  16
ATOM     15  C   UNL     1      -9.963   5.176  70.310  0.00  0.00    +0.135 C 
ATOM     16  N   UNL     1     -10.955   5.582  71.301  0.00  0.00    -0.236 NA
ENDBRANCH   9  16
ENDBRANCH   7  12
ENDBRANCH   1   8
BRANCH   4  17
ATOM     17  O   UNL     1     -11.227  16.739  69.275  0.00  0.00    -0.473 OA
BRANCH  17  18
ATOM     18  C   UNL     1     -10.124  16.729  68.403  0.00  0.00    +0.237 C 
BRANCH  18  19
ATOM     19  C   UNL     1     -10.279  17.653  67.228  0.00  0.00    +0.189 C 
BRANCH  19  20
ATOM     20  O   UNL     1     -10.410  16.983  66.016  0.00  0.00    -0.347 OA
BRANCH  20  21
ATOM     21  C   UNL     1      -9.662  15.821  65.961  0.00  0.00    +0.174 C 
BRANCH  21  22
ATOM     22  C   UNL     1     -10.370  14.675  65.301  0.00  0.00    +0.174 C 
BRANCH  22  23
ATOM     23  O   UNL     1     -11.709  14.936  65.078  0.00  0.00    -0.348 OA
BRANCH  23  24
ATOM     24  C   UNL     1     -12.539  13.871  65.383  0.00  0.00    +0.180 C 
BRANCH  24  25
ATOM     25  C   UNL     1     -11.671  12.629  65.423  0.00  0.00    +0.225 C 
ATOM     26  F   UNL     1     -11.907  11.882  66.556  0.00  0.00    -0.232 F 
ENDBRANCH  24  25
ENDBRANCH  23  24
ENDBRANCH  22  23
ENDBRANCH  21  22
ENDBRANCH  20  21
ENDBRANCH  19  20
ENDBRANCH  18  19
ENDBRANCH  17  18
ENDBRANCH   4  17
TORSDOF 12
ENDMDL
MODEL 5
REMARK VINA RESULT:      -5.5      3.858      7.805
REMARK  Name = 
REMARK  12 active torsions:
REMARK  status: ('A' for Active; 'I' for Inactive)
REMARK    1  A    between atoms: N_2  and  C_3
REMARK    2  A    between atoms: C_6  and  C_7
REMARK    3  A    between atoms: C_8  and  C_9
REMARK    4  A    between atoms: C_12  and  O_13
REMARK    5  A    between atoms: O_13  and  C_14
REMARK    6  A    between atoms: C_14  and  C_15
REMARK    7  A    between atoms: C_15  and  O_16
REMARK    8  A    between atoms: O_16  and  C_17
REMARK    9  A    between atoms: C_17  and  C_18
REMARK   10  A    between atoms: C_18  and  O_19
REMARK   11  A    between atoms: O_19  and  C_20
REMARK   12  A    between atoms: C_20  and  C_21
REMARK                            x       y       z     vdW  Elec       q    Type
REMARK                         _______ _______ _______ _____ _____    ______ ____
ROOT
ATOM      1  C   UNL     1     -10.656  14.632  67.042  0.00  0.00    +0.000 A 
ATOM      2  C   UNL     1     -11.326  14.475  68.248  0.00  0.00    +0.003 A 
ATOM      3  C   UNL     1     -11.796  13.243  68.632  0.00  0.00    +0.037 A 
ATOM      4  C   UNL     1     -11.839  12.181  67.738  0.00  0.00    +0.139 A 
ATOM      5  C   UNL     1     -11.621  12.515  66.407  0.00  0.00    +0.037 A 
ATOM      6  C   UNL     1     -10.943  13.681  66.073  0.00  0.00    +0.003 A 
ENDROOT
BRANCH   1   8
ATOM      7  C   UNL     1     -10.786  17.047  67.353  0.00  0.00    +0.000 C 
ATOM      8  C   UNL     1     -10.286  16.010  66.696  0.00  0.00    +0.000 C 
BRANCH   7  12
ATOM      9  C   UNL     1      -8.096  20.180  67.437  0.00  0.00    +0.065 A 
ATOM     10  C   UNL     1      -7.811  19.028  68.159  0.00  0.00    +0.016 A 
ATOM     11  C   UNL     1      -8.801  18.094  68.444  0.00  0.00    +0.001 A 
ATOM     12  C   UNL     1      -9.948  18.197  67.666  0.00  0.00    +0.000 A 
ATOM     13  C   UNL     1     -10.404  19.484  67.439  0.00  0.00    +0.001 A 
ATOM     14  C   UNL     1      -9.449  20.481  67.319  0.00  0.00    +0.016 A 
BRANCH   9  16
ATOM     15  C   UNL     1      -6.101  20.929  66.156  0.00  0.00    +0.135 C 
ATOM     16  N   UNL     1      -7.085  21.157  67.210  0.00  0.00    -0.236 NA
ENDBRANCH   9  16
ENDBRANCH   7  12
ENDBRANCH   1   8
BRANCH   4  17
ATOM     17  O   UNL     1     -11.697  10.889  68.220  0.00  0.00    -0.473 OA
BRANCH  17  18
ATOM     18  C   UNL     1     -10.987  10.554  69.386  0.00  0.00    +0.237 C 
BRANCH  18  19
ATOM     19  C   UNL     1     -11.839   9.914  70.446  0.00  0.00    +0.189 C 
BRANCH  19  20
ATOM     20  O   UNL     1     -13.065  10.547  70.622  0.00  0.00    -0.347 OA
BRANCH  20  21
ATOM     21  C   UNL     1     -13.149  11.231  71.820  0.00  0.00    +0.174 C 
BRANCH  21  22
ATOM     22  C   UNL     1     -13.154  12.724  71.668  0.00  0.00    +0.174 C 
BRANCH  22  23
ATOM     23  O   UNL     1     -13.968  13.348  72.594  0.00  0.00    -0.348 OA
BRANCH  23  24
ATOM     24  C   UNL     1     -14.149  14.699  72.351  0.00  0.00    +0.180 C 
BRANCH  24  25
ATOM     25  C   UNL     1     -12.816  15.248  71.882  0.00  0.00    +0.225 C 
ATOM     26  F   UNL     1     -12.942  15.949  70.703  0.00  0.00    -0.232 F 
ENDBRANCH  24  25
ENDBRANCH  23  24
ENDBRANCH  22  23
ENDBRANCH  21  22
ENDBRANCH  20  21
ENDBRANCH  19  20
ENDBRANCH  18  19
ENDBRANCH  17  18
ENDBRANCH   4  17
TORSDOF 12
ENDMDL
MODEL 6
REMARK VINA RESULT:      -5.5      1.366      1.884
REMARK  Name = 
REMARK  12 active torsions:
REMARK  status: ('A' for Active; 'I' for Inactive)
REMARK    1  A    between atoms: N_2  and  C_3
REMARK    2  A    between atoms: C_6  and  C_7
REMARK    3  A    between atoms: C_8  and  C_9
REMARK    4  A    between atoms: C_12  and  O_13
REMARK    5  A    between atoms: O_13  and  C_14
REMARK    6  A    between atoms: C_14  and  C_15
REMARK    7  A    between atoms: C_15  and  O_16
REMARK    8  A    between atoms: O_16  and  C_17
REMARK    9  A    between atoms: C_17  and  C_18
REMARK   10  A    between atoms: C_18  and  O_19
REMARK   11  A    between atoms: O_19  and  C_20
REMARK   12  A    between atoms: C_20  and  C_21
REMARK                            x       y       z     vdW  Elec       q    Type
REMARK                         _______ _______ _______ _____ _____    ______ ____
ROOT
ATOM      1  C   UNL     1     -10.901  13.099  67.382  0.00  0.00    +0.000 A 
ATOM      2  C   UNL     1      -9.566  13.321  67.692  0.00  0.00    +0.003 A 
ATOM      3  C   UNL     1      -8.853  14.306  67.052  0.00  0.00    +0.037 A 
ATOM      4  C   UNL     1      -9.357  14.936  65.921  0.00  0.00    +0.139 A 
ATOM      5  C   UNL     1     -10.478  14.340  65.358  0.00  0.00    +0.037 A 
ATOM      6  C   UNL     1     -11.296  13.512  66.117  0.00  0.00    +0.003 A 
ENDROOT
BRANCH   1   8
ATOM      7  C   UNL     1     -10.851  11.199  68.908  0.00  0.00    +0.000 C 
ATOM      8  C   UNL     1     -11.530  11.960  68.061  0.00  0.00    +0.000 C 
BRANCH   7  12
ATOM      9  C   UNL     1     -13.228   9.463  71.806  0.00  0.00    +0.065 A 
ATOM     10  C   UNL     1     -13.267  10.842  71.640  0.00  0.00    +0.016 A 
ATOM     11  C   UNL     1     -12.271  11.510  70.937  0.00  0.00    +0.001 A 
ATOM     12  C   UNL     1     -11.482  10.704  70.125  0.00  0.00    +0.000 A 
ATOM     13  C   UNL     1     -11.100   9.492  70.675  0.00  0.00    +0.001 A 
ATOM     14  C   UNL     1     -12.001   8.871  71.524  0.00  0.00    +0.016 A 
BRANCH   9  16
ATOM     15  C   UNL     1     -15.042   7.770  71.959  0.00  0.00    +0.135 C 
ATOM     16  N   UNL     1     -14.221   8.803  72.584  0.00  0.00    -0.236 NA
ENDBRANCH   9  16
ENDBRANCH   7  12
ENDBRANCH   1   8
BRANCH   4  17
ATOM     17  O   UNL     1      -9.001  16.252  65.669  0.00  0.00    -0.473 OA
BRANCH  17  18
ATOM     18  C   UNL     1      -7.867  16.882  66.211  0.00  0.00    +0.237 C 
BRANCH  18  19
ATOM     19  C   UNL     1      -8.012  18.372  66.343  0.00  0.00    +0.189 C 
BRANCH  19  20
ATOM     20  O   UNL     1      -7.883  18.823  67.652  0.00  0.00    -0.347 OA
BRANCH  20  21
ATOM     21  C   UNL     1      -8.828  18.280  68.503  0.00  0.00    +0.174 C 
BRANCH  21  22
ATOM     22  C   UNL     1     -10.243  18.475  68.042  0.00  0.00    +0.174 C 
BRANCH  22  23
ATOM     23  O   UNL     1     -11.074  17.442  68.432  0.00  0.00    -0.348 OA
BRANCH  23  24
ATOM     24  C   UNL     1     -10.491  16.576  69.341  0.00  0.00    +0.180 C 
BRANCH  24  25
ATOM     25  C   UNL     1     -11.608  16.005  70.190  0.00  0.00    +0.225 C 
ATOM     26  F   UNL     1     -11.602  14.627  70.178  0.00  0.00    -0.232 F 
ENDBRANCH  24  25
ENDBRANCH  23  24
ENDBRANCH  22  23
ENDBRANCH  21  22
ENDBRANCH  20  21
ENDBRANCH  19  20
ENDBRANCH  18  19
ENDBRANCH  17  18
ENDBRANCH   4  17
TORSDOF 12
ENDMDL
MODEL 7
REMARK VINA RESULT:      -5.4      3.496      5.512
REMARK  Name = 
REMARK  12 active torsions:
REMARK  status: ('A' for Active; 'I' for Inactive)
REMARK    1  A    between atoms: N_2  and  C_3
REMARK    2  A    between atoms: C_6  and  C_7
REMARK    3  A    between atoms: C_8  and  C_9
REMARK    4  A    between atoms: C_12  and  O_13
REMARK    5  A    between atoms: O_13  and  C_14
REMARK    6  A    between atoms: C_14  and  C_15
REMARK    7  A    between atoms: C_15  and  O_16
REMARK    8  A    between atoms: O_16  and  C_17
REMARK    9  A    between atoms: C_17  and  C_18
REMARK   10  A    between atoms: C_18  and  O_19
REMARK   11  A    between atoms: O_19  and  C_20
REMARK   12  A    between atoms: C_20  and  C_21
REMARK                            x       y       z     vdW  Elec       q    Type
REMARK                         _______ _______ _______ _____ _____    ______ ____
ROOT
ATOM      1  C   UNL     1     -11.995  11.515  69.779  0.00  0.00    +0.000 A 
ATOM      2  C   UNL     1     -11.906  12.861  70.113  0.00  0.00    +0.003 A 
ATOM      3  C   UNL     1     -11.889  13.825  69.136  0.00  0.00    +0.037 A 
ATOM      4  C   UNL     1     -11.712  13.490  67.799  0.00  0.00    +0.139 A 
ATOM      5  C   UNL     1     -11.311  12.180  67.564  0.00  0.00    +0.037 A 
ATOM      6  C   UNL     1     -11.548  11.187  68.507  0.00  0.00    +0.003 A 
ENDROOT
BRANCH   1   8
ATOM      7  C   UNL     1     -12.323   9.321  70.788  0.00  0.00    +0.000 C 
ATOM      8  C   UNL     1     -11.908  10.575  70.902  0.00  0.00    +0.000 C 
BRANCH   7  12
ATOM      9  C   UNL     1     -10.863   6.248  73.131  0.00  0.00    +0.065 A 
ATOM     10  C   UNL     1     -10.263   7.499  73.210  0.00  0.00    +0.016 A 
ATOM     11  C   UNL     1     -10.476   8.462  72.230  0.00  0.00    +0.001 A 
ATOM     12  C   UNL     1     -11.576   8.236  71.412  0.00  0.00    +0.000 A 
ATOM     13  C   UNL     1     -11.756   6.928  70.997  0.00  0.00    +0.001 A 
ATOM     14  C   UNL     1     -11.393   5.927  71.885  0.00  0.00    +0.016 A 
BRANCH   9  16
ATOM     15  C   UNL     1      -9.502   4.302  73.865  0.00  0.00    +0.135 C 
ATOM     16  N   UNL     1     -10.583   5.252  74.109  0.00  0.00    -0.236 NA
ENDBRANCH   9  16
ENDBRANCH   7  12
ENDBRANCH   1   8
BRANCH   4  17
ATOM     17  O   UNL     1     -12.294  14.283  66.823  0.00  0.00    -0.473 OA
BRANCH  17  18
ATOM     18  C   UNL     1     -12.851  13.788  65.631  0.00  0.00    +0.237 C 
BRANCH  18  19
ATOM     19  C   UNL     1     -12.237  14.375  64.391  0.00  0.00    +0.189 C 
BRANCH  19  20
ATOM     20  O   UNL     1     -12.458  13.607  63.253  0.00  0.00    -0.347 OA
BRANCH  20  21
ATOM     21  C   UNL     1     -12.312  12.252  63.482  0.00  0.00    +0.174 C 
BRANCH  21  22
ATOM     22  C   UNL     1     -10.887  11.784  63.471  0.00  0.00    +0.174 C 
BRANCH  22  23
ATOM     23  O   UNL     1     -10.659  10.758  64.368  0.00  0.00    -0.348 OA
BRANCH  23  24
ATOM     24  C   UNL     1      -9.325  10.406  64.479  0.00  0.00    +0.180 C 
BRANCH  24  25
ATOM     25  C   UNL     1      -9.207   9.485  65.677  0.00  0.00    +0.225 C 
ATOM     26  F   UNL     1     -10.433   8.980  66.051  0.00  0.00    -0.232 F 
ENDBRANCH  24  25
ENDBRANCH  23  24
ENDBRANCH  22  23
ENDBRANCH  21  22
ENDBRANCH  20  21
ENDBRANCH  19  20
ENDBRANCH  18  19
ENDBRANCH  17  18
ENDBRANCH   4  17
TORSDOF 12
ENDMDL
MODEL 8
REMARK VINA RESULT:      -5.3      3.690      5.892
REMARK  Name = 
REMARK  12 active torsions:
REMARK  status: ('A' for Active; 'I' for Inactive)
REMARK    1  A    between atoms: N_2  and  C_3
REMARK    2  A    between atoms: C_6  and  C_7
REMARK    3  A    between atoms: C_8  and  C_9
REMARK    4  A    between atoms: C_12  and  O_13
REMARK    5  A    between atoms: O_13  and  C_14
REMARK    6  A    between atoms: C_14  and  C_15
REMARK    7  A    between atoms: C_15  and  O_16
REMARK    8  A    between atoms: O_16  and  C_17
REMARK    9  A    between atoms: C_17  and  C_18
REMARK   10  A    between atoms: C_18  and  O_19
REMARK   11  A    between atoms: O_19  and  C_20
REMARK   12  A    between atoms: C_20  and  C_21
REMARK                            x       y       z     vdW  Elec       q    Type
REMARK                         _______ _______ _______ _____ _____    ______ ____
ROOT
ATOM      1  C   UNL     1     -10.904  10.882  67.693  0.00  0.00    +0.000 A 
ATOM      2  C   UNL     1      -9.768  11.680  67.649  0.00  0.00    +0.003 A 
ATOM      3  C   UNL     1      -8.771  11.429  66.738  0.00  0.00    +0.037 A 
ATOM      4  C   UNL     1      -8.745  10.245  66.011  0.00  0.00    +0.139 A 
ATOM      5  C   UNL     1      -9.626   9.262  66.445  0.00  0.00    +0.037 A 
ATOM      6  C   UNL     1     -10.749   9.597  67.192  0.00  0.00    +0.003 A 
ENDROOT
BRANCH   1   8
ATOM      7  C   UNL     1     -11.456  11.745  69.905  0.00  0.00    +0.000 C 
ATOM      8  C   UNL     1     -11.853  11.189  68.769  0.00  0.00    +0.000 C 
BRANCH   7  12
ATOM      9  C   UNL     1     -13.048  14.774  72.220  0.00  0.00    +0.065 A 
ATOM     10  C   UNL     1     -13.431  13.462  72.470  0.00  0.00    +0.016 A 
ATOM     11  C   UNL     1     -13.205  12.456  71.538  0.00  0.00    +0.001 A 
ATOM     12  C   UNL     1     -12.272  12.763  70.555  0.00  0.00    +0.000 A 
ATOM     13  C   UNL     1     -12.355  14.041  70.030  0.00  0.00    +0.001 A 
ATOM     14  C   UNL     1     -12.746  15.054  70.891  0.00  0.00    +0.016 A 
BRANCH   9  16
ATOM     15  C   UNL     1     -12.516  15.938  74.350  0.00  0.00    +0.135 C 
ATOM     16  N   UNL     1     -13.346  15.803  73.157  0.00  0.00    -0.236 NA
ENDBRANCH   9  16
ENDBRANCH   7  12
ENDBRANCH   1   8
BRANCH   4  17
ATOM     17  O   UNL     1      -8.189  10.246  64.742  0.00  0.00    -0.473 OA
BRANCH  17  18
ATOM     18  C   UNL     1      -8.755   9.596  63.630  0.00  0.00    +0.237 C 
BRANCH  18  19
ATOM     19  C   UNL     1      -9.194  10.536  62.543  0.00  0.00    +0.189 C 
BRANCH  19  20
ATOM     20  O   UNL     1      -9.857  11.660  63.023  0.00  0.00    -0.347 OA
BRANCH  20  21
ATOM     21  C   UNL     1     -11.152  11.390  63.424  0.00  0.00    +0.174 C 
BRANCH  21  22
ATOM     22  C   UNL     1     -11.954  12.615  63.753  0.00  0.00    +0.174 C 
BRANCH  22  23
ATOM     23  O   UNL     1     -12.348  12.651  65.077  0.00  0.00    -0.348 OA
BRANCH  23  24
ATOM     24  C   UNL     1     -12.649  13.924  65.530  0.00  0.00    +0.180 C 
BRANCH  24  25
ATOM     25  C   UNL     1     -11.933  14.900  64.619  0.00  0.00    +0.225 C 
ATOM     26  F   UNL     1     -10.716  15.281  65.139  0.00  0.00    -0.232 F 
ENDBRANCH  24  25
ENDBRANCH  23  24
ENDBRANCH  22  23
ENDBRANCH  21  22
ENDBRANCH  20  21
ENDBRANCH  19  20
ENDBRANCH  18  19
ENDBRANCH  17  18
ENDBRANCH   4  17
TORSDOF 12
ENDMDL
MODEL 9
REMARK VINA RESULT:      -5.3      2.910      3.660
REMARK  Name = 
REMARK  12 active torsions:
REMARK  status: ('A' for Active; 'I' for Inactive)
REMARK    1  A    between atoms: N_2  and  C_3
REMARK    2  A    between atoms: C_6  and  C_7
REMARK    3  A    between atoms: C_8  and  C_9
REMARK    4  A    between atoms: C_12  and  O_13
REMARK    5  A    between atoms: O_13  and  C_14
REMARK    6  A    between atoms: C_14  and  C_15
REMARK    7  A    between atoms: C_15  and  O_16
REMARK    8  A    between atoms: O_16  and  C_17
REMARK    9  A    between atoms: C_17  and  C_18
REMARK   10  A    between atoms: C_18  and  O_19
REMARK   11  A    between atoms: O_19  and  C_20
REMARK   12  A    between atoms: C_20  and  C_21
REMARK                            x       y       z     vdW  Elec       q    Type
REMARK                         _______ _______ _______ _____ _____    ______ ____
ROOT
ATOM      1  C   UNL     1     -11.378  13.156  67.060  0.00  0.00    +0.000 A 
ATOM      2  C   UNL     1     -10.051  13.317  66.681  0.00  0.00    +0.003 A 
ATOM      3  C   UNL     1      -9.672  14.374  65.891  0.00  0.00    +0.037 A 
ATOM      4  C   UNL     1     -10.617  15.164  65.247  0.00  0.00    +0.139 A 
ATOM      5  C   UNL     1     -11.914  14.667  65.257  0.00  0.00    +0.037 A 
ATOM      6  C   UNL     1     -12.313  13.749  66.221  0.00  0.00    +0.003 A 
ENDROOT
BRANCH   1   8
ATOM      7  C   UNL     1     -10.862  11.497  68.769  0.00  0.00    +0.000 C 
ATOM      8  C   UNL     1     -11.678  11.939  67.823  0.00  0.00    +0.000 C 
BRANCH   7  12
ATOM      9  C   UNL     1     -12.928   9.489  71.729  0.00  0.00    +0.065 A 
ATOM     10  C   UNL     1     -13.156  10.848  71.552  0.00  0.00    +0.016 A 
ATOM     11  C   UNL     1     -12.273  11.636  70.823  0.00  0.00    +0.001 A 
ATOM     12  C   UNL     1     -11.397  10.935  70.003  0.00  0.00    +0.000 A 
ATOM     13  C   UNL     1     -10.844   9.793  70.555  0.00  0.00    +0.001 A 
ATOM     14  C   UNL     1     -11.637   9.065  71.428  0.00  0.00    +0.016 A 
BRANCH   9  16
ATOM     15  C   UNL     1     -14.891   7.972  71.889  0.00  0.00    +0.135 C 
ATOM     16  N   UNL     1     -13.807   8.709  72.532  0.00  0.00    -0.236 NA
ENDBRANCH   9  16
ENDBRANCH   7  12
ENDBRANCH   1   8
BRANCH   4  17
ATOM     17  O   UNL     1     -10.327  16.499  65.008  0.00  0.00    -0.473 OA
BRANCH  17  18
ATOM     18  C   UNL     1     -10.457  17.520  65.965  0.00  0.00    +0.237 C 
BRANCH  18  19
ATOM     19  C   UNL     1      -9.153  17.920  66.598  0.00  0.00    +0.189 C 
BRANCH  19  20
ATOM     20  O   UNL     1      -8.055  17.714  65.770  0.00  0.00    -0.347 OA
BRANCH  20  21
ATOM     21  C   UNL     1      -7.033  17.023  66.395  0.00  0.00    +0.174 C 
BRANCH  21  22
ATOM     22  C   UNL     1      -7.242  16.833  67.869  0.00  0.00    +0.174 C 
BRANCH  22  23
ATOM     23  O   UNL     1      -6.178  17.299  68.619  0.00  0.00    -0.348 OA
BRANCH  23  24
ATOM     24  C   UNL     1      -5.827  18.606  68.329  0.00  0.00    +0.180 C 
BRANCH  24  25
ATOM     25  C   UNL     1      -6.808  19.502  69.059  0.00  0.00    +0.225 C 
ATOM     26  F   UNL     1      -7.458  20.354  68.193  0.00  0.00    -0.232 F 
ENDBRANCH  24  25
ENDBRANCH  23  24
ENDBRANCH  22  23
ENDBRANCH  21  22
ENDBRANCH  20  21
ENDBRANCH  19  20
ENDBRANCH  18  19
ENDBRANCH  17  18
ENDBRANCH   4  17
TORSDOF 12
ENDMDL
