MODEL 1
REMARK VINA RESULT:      -6.8      0.000      0.000
REMARK  Name = 
REMARK  6 active torsions:
REMARK  status: ('A' for Active; 'I' for Inactive)
REMARK    1  A    between atoms: C_2  and  C_3
REMARK    2  A    between atoms: C_3  and  O_5
REMARK    3  A    between atoms: O_5  and  C_6
REMARK    4  A    between atoms: C_6  and  C_7
REMARK    5  A    between atoms: C_7  and  S_9
REMARK    6  A    between atoms: S_9  and  C_10
REMARK                            x       y       z     vdW  Elec       q    Type
REMARK                         _______ _______ _______ _____ _____    ______ ____
ROOT
ATOM      1  C   UNL     1     -10.248  12.915  67.159  0.00  0.00    +0.195 C 
ATOM      2  C   UNL     1      -9.541  14.156  67.446  0.00  0.00    +0.044 C 
ATOM      3  C   UNL     1     -10.403  15.222  66.589  0.00  0.00    +0.007 C 
ATOM      4  C   UNL     1      -9.848  16.467  67.593  0.00  0.00    +0.036 C 
ATOM      5  C   UNL     1      -8.517  16.694  66.742  0.00  0.00    +0.168 C 
ATOM      6  C   UNL     1      -7.408  15.585  67.199  0.00  0.00    +0.182 C 
ATOM      7  O   UNL     1      -7.824  15.579  68.658  0.00  0.00    -0.220 OA
ATOM      8  F   UNL     1      -8.710  16.616  65.447  0.00  0.00    -0.237 F 
ATOM      9  C   UNL     1      -8.003  17.948  67.333  0.00  0.00    +0.066 C 
ATOM     10  C   UNL     1      -8.858  19.095  66.884  0.00  0.00    -0.003 C 
ATOM     11  C   UNL     1      -8.335  20.275  67.234  0.00  0.00    +0.036 C 
ATOM     12  C   UNL     1      -6.909  20.446  67.525  0.00  0.00    +0.195 C 
ATOM     13  C   UNL     1      -6.093  19.257  67.829  0.00  0.00    +0.038 C 
ATOM     14  O   UNL     1      -6.377  21.592  67.628  0.00  0.00    -0.287 OA
ATOM     15  C   UNL     1     -10.298  18.907  67.624  0.00  0.00    +0.180 C 
ATOM     16  F   UNL     1     -10.990  19.815  66.640  0.00  0.00    -0.233 F 
ATOM     17  C   UNL     1      -8.172  17.997  68.855  0.00  0.00    +0.011 C 
ATOM     18  C   UNL     1      -6.563  18.186  67.178  0.00  0.00    -0.017 C 
ATOM     19  C   UNL     1     -10.652  17.573  66.714  0.00  0.00    +0.042 C 
ATOM     20  C   UNL     1     -11.662  14.868  67.533  0.00  0.00    +0.004 C 
ATOM     21  C   UNL     1      -9.809  14.370  68.889  0.00  0.00    +0.004 C 
ATOM     22  C   UNL     1      -8.301  14.265  66.814  0.00  0.00    +0.039 C 
ATOM     23  C   UNL     1     -11.824  13.307  67.078  0.00  0.00    +0.045 C 
ATOM     24  C   UNL     1     -11.786  13.688  65.489  0.00  0.00    +0.004 C 
ENDROOT
BRANCH   1  25
ATOM     25  C   UNL     1     -10.250  11.891  68.229  0.00  0.00    +0.237 C 
ATOM     26  O   UNL     1      -9.329  11.514  68.903  0.00  0.00    -0.281 OA
BRANCH  25  27
ATOM     27  S   UNL     1     -11.816  11.165  68.746  0.00  0.00    -0.036 S 
BRANCH  27  28
ATOM     28  C   UNL     1     -12.063  11.476  70.508  0.00  0.00    +0.258 C 
ATOM     29  F   UNL     1     -12.172  12.837  70.641  0.00  0.00    -0.221 F 
ENDBRANCH  27  28
ENDBRANCH  25  27
ENDBRANCH   1  25
BRANCH   1  30
ATOM     30  O   UNL     1      -9.892  12.255  65.983  0.00  0.00    -0.448 OA
BRANCH  30  31
ATOM     31  C   UNL     1      -9.342  10.997  66.094  0.00  0.00    +0.317 C 
ATOM     32  O   UNL     1      -8.101  10.817  66.170  0.00  0.00    -0.250 OA
BRANCH  31  34
ATOM     33  C   UNL     1      -9.722   8.673  66.503  0.00  0.00    +0.012 C 
ATOM     34  C   UNL     1     -10.136   9.792  65.701  0.00  0.00    +0.110 C 
ENDBRANCH  31  34
ENDBRANCH  30  31
ENDBRANCH   1  30
TORSDOF 6
ENDMDL
MODEL 2
REMARK VINA RESULT:      -6.6      3.625      5.560
REMARK  Name = 
REMARK  6 active torsions:
REMARK  status: ('A' for Active; 'I' for Inactive)
REMARK    1  A    between atoms: C_2  and  C_3
REMARK    2  A    between atoms: C_3  and  O_5
REMARK    3  A    between atoms: O_5  and  C_6
REMARK    4  A    between atoms: C_6  and  C_7
REMARK    5  A    between atoms: C_7  and  S_9
REMARK    6  A    between atoms: S_9  and  C_10
REMARK                            x       y       z     vdW  Elec       q    Type
REMARK                         _______ _______ _______ _____ _____    ______ ____
ROOT
ATOM      1  C   UNL     1      -9.368   8.923  69.135  0.00  0.00    +0.195 C 
ATOM      2  C   UNL     1      -9.777  10.220  68.614  0.00  0.00    +0.044 C 
ATOM      3  C   UNL     1      -9.673   9.972  67.020  0.00  0.00    +0.007 C 
ATOM      4  C   UNL     1     -10.767  11.237  66.758  0.00  0.00    +0.036 C 
ATOM      5  C   UNL     1      -9.629  12.355  66.770  0.00  0.00    +0.168 C 
ATOM      6  C   UNL     1      -9.281  12.733  68.321  0.00  0.00    +0.182 C 
ATOM      7  O   UNL     1     -10.706  12.573  68.816  0.00  0.00    -0.220 OA
ATOM      8  F   UNL     1      -8.533  11.987  66.151  0.00  0.00    -0.237 F 
ATOM      9  C   UNL     1     -10.377  13.539  66.294  0.00  0.00    +0.066 C 
ATOM     10  C   UNL     1     -10.654  13.393  64.828  0.00  0.00    -0.003 C 
ATOM     11  C   UNL     1     -11.164  14.513  64.303  0.00  0.00    +0.036 C 
ATOM     12  C   UNL     1     -10.978  15.827  64.924  0.00  0.00    +0.195 C 
ATOM     13  C   UNL     1     -10.573  15.898  66.339  0.00  0.00    +0.038 C 
ATOM     14  O   UNL     1     -11.256  16.903  64.315  0.00  0.00    -0.287 OA
ATOM     15  C   UNL     1     -11.747  12.191  64.688  0.00  0.00    +0.180 C 
ATOM     16  F   UNL     1     -11.420  11.982  63.232  0.00  0.00    -0.233 F 
ATOM     17  C   UNL     1     -11.789  13.621  66.883  0.00  0.00    +0.011 C 
ATOM     18  C   UNL     1      -9.816  14.843  66.664  0.00  0.00    -0.017 C 
ATOM     19  C   UNL     1     -10.636  11.057  65.148  0.00  0.00    +0.042 C 
ATOM     20  C   UNL     1     -10.826   8.856  67.180  0.00  0.00    +0.004 C 
ATOM     21  C   UNL     1     -11.209  10.299  68.995  0.00  0.00    +0.004 C 
ATOM     22  C   UNL     1      -8.825  11.227  68.778  0.00  0.00    +0.039 C 
ATOM     23  C   UNL     1      -9.975   7.817  68.110  0.00  0.00    +0.045 C 
ATOM     24  C   UNL     1      -8.690   7.850  67.101  0.00  0.00    +0.004 C 
ENDROOT
BRANCH   1  25
ATOM     25  C   UNL     1      -9.975   8.503  70.419  0.00  0.00    +0.237 C 
ATOM     26  O   UNL     1     -10.129   9.152  71.420  0.00  0.00    -0.281 OA
BRANCH  25  27
ATOM     27  S   UNL     1     -10.729   6.871  70.543  0.00  0.00    -0.036 S 
BRANCH  27  28
ATOM     28  C   UNL     1     -12.207   6.975  71.576  0.00  0.00    +0.258 C 
ATOM     29  F   UNL     1     -12.987   7.960  71.024  0.00  0.00    -0.221 F 
ENDBRANCH  27  28
ENDBRANCH  25  27
ENDBRANCH   1  25
BRANCH   1  30
ATOM     30  O   UNL     1      -7.995   8.709  69.261  0.00  0.00    -0.448 OA
BRANCH  30  31
ATOM     31  C   UNL     1      -7.471   8.632  70.532  0.00  0.00    +0.317 C 
ATOM     32  O   UNL     1      -7.047   9.647  71.140  0.00  0.00    -0.250 OA
BRANCH  31  34
ATOM     33  C   UNL     1      -6.742   6.425  69.973  0.00  0.00    +0.012 C 
ATOM     34  C   UNL     1      -6.988   7.322  71.069  0.00  0.00    +0.110 C 
ENDBRANCH  31  34
ENDBRANCH  30  31
ENDBRANCH   1  30
TORSDOF 6
ENDMDL
MODEL 3
REMARK VINA RESULT:      -6.2      3.112      7.552
REMARK  Name = 
REMARK  6 active torsions:
REMARK  status: ('A' for Active; 'I' for Inactive)
REMARK    1  A    between atoms: C_2  and  C_3
REMARK    2  A    between atoms: C_3  and  O_5
REMARK    3  A    between atoms: O_5  and  C_6
REMARK    4  A    between atoms: C_6  and  C_7
REMARK    5  A    between atoms: C_7  and  S_9
REMARK    6  A    between atoms: S_9  and  C_10
REMARK                            x       y       z     vdW  Elec       q    Type
REMARK                         _______ _______ _______ _____ _____    ______ ____
ROOT
ATOM      1  C   UNL     1      -6.789  18.359  66.998  0.00  0.00    +0.195 C 
ATOM      2  C   UNL     1      -7.650  17.187  67.077  0.00  0.00    +0.044 C 
ATOM      3  C   UNL     1      -8.431  17.455  68.467  0.00  0.00    +0.007 C 
ATOM      4  C   UNL     1      -9.687  16.445  67.948  0.00  0.00    +0.036 C 
ATOM      5  C   UNL     1      -8.971  15.120  68.479  0.00  0.00    +0.168 C 
ATOM      6  C   UNL     1      -7.877  14.635  67.368  0.00  0.00    +0.182 C 
ATOM      7  O   UNL     1      -8.706  15.064  66.172  0.00  0.00    -0.220 OA
ATOM      8  F   UNL     1      -8.380  15.279  69.638  0.00  0.00    -0.237 F 
ATOM      9  C   UNL     1     -10.058  14.126  68.339  0.00  0.00    +0.066 C 
ATOM     10  C   UNL     1     -11.090  14.368  69.399  0.00  0.00    -0.003 C 
ATOM     11  C   UNL     1     -12.001  13.390  69.441  0.00  0.00    +0.036 C 
ATOM     12  C   UNL     1     -11.737  12.048  68.916  0.00  0.00    +0.195 C 
ATOM     13  C   UNL     1     -10.618  11.855  67.976  0.00  0.00    +0.038 C 
ATOM     14  O   UNL     1     -12.503  11.068  69.161  0.00  0.00    -0.287 OA
ATOM     15  C   UNL     1     -11.825  15.769  69.008  0.00  0.00    +0.180 C 
ATOM     16  F   UNL     1     -12.357  15.951  70.406  0.00  0.00    -0.233 F 
ATOM     17  C   UNL     1     -10.867  14.314  67.052  0.00  0.00    +0.011 C 
ATOM     18  C   UNL     1      -9.634  12.725  68.233  0.00  0.00    -0.017 C 
ATOM     19  C   UNL     1     -10.467  16.642  69.360  0.00  0.00    +0.042 C 
ATOM     20  C   UNL     1      -9.060  18.776  67.786  0.00  0.00    +0.004 C 
ATOM     21  C   UNL     1      -8.593  17.387  65.949  0.00  0.00    +0.004 C 
ATOM     22  C   UNL     1      -6.977  16.004  67.388  0.00  0.00    +0.039 C 
ATOM     23  C   UNL     1      -7.658  19.594  67.599  0.00  0.00    +0.045 C 
ATOM     24  C   UNL     1      -7.211  19.333  69.149  0.00  0.00    +0.004 C 
ENDROOT
BRANCH   1  25
ATOM     25  C   UNL     1      -6.465  18.855  65.641  0.00  0.00    +0.237 C 
ATOM     26  O   UNL     1      -6.222  18.216  64.651  0.00  0.00    -0.281 OA
BRANCH  25  27
ATOM     27  S   UNL     1      -6.560  20.622  65.305  0.00  0.00    -0.036 S 
BRANCH  27  28
ATOM     28  C   UNL     1      -5.933  20.946  63.642  0.00  0.00    +0.258 C 
ATOM     29  F   UNL     1      -6.925  21.633  62.989  0.00  0.00    -0.221 F 
ENDBRANCH  27  28
ENDBRANCH  25  27
ENDBRANCH   1  25
BRANCH   1  30
ATOM     30  O   UNL     1      -5.579  18.288  67.690  0.00  0.00    -0.448 OA
BRANCH  30  31
ATOM     31  C   UNL     1      -4.420  18.214  66.949  0.00  0.00    +0.317 C 
ATOM     32  O   UNL     1      -3.930  17.114  66.586  0.00  0.00    -0.250 OA
BRANCH  31  34
ATOM     33  C   UNL     1      -3.710  20.210  68.057  0.00  0.00    +0.012 C 
ATOM     34  C   UNL     1      -3.475  19.373  66.912  0.00  0.00    +0.110 C 
ENDBRANCH  31  34
ENDBRANCH  30  31
ENDBRANCH   1  30
TORSDOF 6
ENDMDL
MODEL 4
REMARK VINA RESULT:      -6.1      2.895      7.564
REMARK  Name = 
REMARK  6 active torsions:
REMARK  status: ('A' for Active; 'I' for Inactive)
REMARK    1  A    between atoms: C_2  and  C_3
REMARK    2  A    between atoms: C_3  and  O_5
REMARK    3  A    between atoms: O_5  and  C_6
REMARK    4  A    between atoms: C_6  and  C_7
REMARK    5  A    between atoms: C_7  and  S_9
REMARK    6  A    between atoms: S_9  and  C_10
REMARK                            x       y       z     vdW  Elec       q    Type
REMARK                         _______ _______ _______ _____ _____    ______ ____
ROOT
ATOM      1  C   UNL     1      -7.446  18.508  68.065  0.00  0.00    +0.195 C 
ATOM      2  C   UNL     1      -7.758  17.105  67.823  0.00  0.00    +0.044 C 
ATOM      3  C   UNL     1      -9.368  17.105  67.963  0.00  0.00    +0.007 C 
ATOM      4  C   UNL     1      -9.443  15.697  67.026  0.00  0.00    +0.036 C 
ATOM      5  C   UNL     1      -9.224  14.734  68.281  0.00  0.00    +0.168 C 
ATOM      6  C   UNL     1      -7.625  14.652  68.606  0.00  0.00    +0.182 C 
ATOM      7  O   UNL     1      -7.193  14.723  67.154  0.00  0.00    -0.220 OA
ATOM      8  F   UNL     1      -9.871  15.124  69.352  0.00  0.00    -0.237 F 
ATOM      9  C   UNL     1      -9.516  13.411  67.688  0.00  0.00    +0.066 C 
ATOM     10  C   UNL     1     -10.992  13.288  67.454  0.00  0.00    -0.003 C 
ATOM     11  C   UNL     1     -11.338  12.047  67.094  0.00  0.00    +0.036 C 
ATOM     12  C   UNL     1     -10.506  10.880  67.399  0.00  0.00    +0.195 C 
ATOM     13  C   UNL     1      -9.091  11.083  67.753  0.00  0.00    +0.038 C 
ATOM     14  O   UNL     1     -10.938   9.695  67.267  0.00  0.00    -0.287 OA
ATOM     15  C   UNL     1     -11.349  14.317  66.242  0.00  0.00    +0.180 C 
ATOM     16  F   UNL     1     -12.813  14.327  66.601  0.00  0.00    -0.233 F 
ATOM     17  C   UNL     1      -8.952  13.262  66.271  0.00  0.00    +0.011 C 
ATOM     18  C   UNL     1      -8.926  12.257  68.375  0.00  0.00    -0.017 C 
ATOM     19  C   UNL     1     -11.057  15.631  67.201  0.00  0.00    +0.042 C 
ATOM     20  C   UNL     1      -9.416  18.091  66.687  0.00  0.00    +0.004 C 
ATOM     21  C   UNL     1      -7.399  16.923  66.395  0.00  0.00    +0.004 C 
ATOM     22  C   UNL     1      -7.411  16.254  68.874  0.00  0.00    +0.039 C 
ATOM     23  C   UNL     1      -8.651  19.358  67.380  0.00  0.00    +0.045 C 
ATOM     24  C   UNL     1      -9.614  19.313  68.700  0.00  0.00    +0.004 C 
ENDROOT
BRANCH   1  25
ATOM     25  C   UNL     1      -6.261  19.054  67.365  0.00  0.00    +0.237 C 
ATOM     26  O   UNL     1      -5.194  18.531  67.184  0.00  0.00    -0.281 OA
BRANCH  25  27
ATOM     27  S   UNL     1      -6.391  20.644  66.527  0.00  0.00    -0.036 S 
BRANCH  27  28
ATOM     28  C   UNL     1      -5.851  20.460  64.813  0.00  0.00    +0.258 C 
ATOM     29  F   UNL     1      -6.438  19.308  64.352  0.00  0.00    -0.221 F 
ENDBRANCH  27  28
ENDBRANCH  25  27
ENDBRANCH   1  25
BRANCH   1  30
ATOM     30  O   UNL     1      -7.329  18.897  69.400  0.00  0.00    -0.448 OA
BRANCH  30  31
ATOM     31  C   UNL     1      -6.062  19.103  69.898  0.00  0.00    +0.317 C 
ATOM     32  O   UNL     1      -5.381  18.171  70.396  0.00  0.00    -0.250 OA
BRANCH  31  34
ATOM     33  C   UNL     1      -4.946  20.438  71.538  0.00  0.00    +0.012 C 
ATOM     34  C   UNL     1      -5.613  20.482  70.266  0.00  0.00    +0.110 C 
ENDBRANCH  31  34
ENDBRANCH  30  31
ENDBRANCH   1  30
TORSDOF 6
ENDMDL
MODEL 5
REMARK VINA RESULT:      -6.0      3.043      7.751
REMARK  Name = 
REMARK  6 active torsions:
REMARK  status: ('A' for Active; 'I' for Inactive)
REMARK    1  A    between atoms: C_2  and  C_3
REMARK    2  A    between atoms: C_3  and  O_5
REMARK    3  A    between atoms: O_5  and  C_6
REMARK    4  A    between atoms: C_6  and  C_7
REMARK    5  A    between atoms: C_7  and  S_9
REMARK    6  A    between atoms: S_9  and  C_10
REMARK                            x       y       z     vdW  Elec       q    Type
REMARK                         _______ _______ _______ _____ _____    ______ ____
ROOT
ATOM      1  C   UNL     1      -6.304  18.975  67.986  0.00  0.00    +0.195 C 
ATOM      2  C   UNL     1      -6.969  17.682  67.901  0.00  0.00    +0.044 C 
ATOM      3  C   UNL     1      -8.365  18.086  67.194  0.00  0.00    +0.007 C 
ATOM      4  C   UNL     1      -8.542  16.492  66.649  0.00  0.00    +0.036 C 
ATOM      5  C   UNL     1      -9.240  16.005  68.000  0.00  0.00    +0.168 C 
ATOM      6  C   UNL     1      -8.080  15.692  69.106  0.00  0.00    +0.182 C 
ATOM      7  O   UNL     1      -7.081  15.154  68.098  0.00  0.00    -0.220 OA
ATOM      8  F   UNL     1     -10.090  16.876  68.488  0.00  0.00    -0.237 F 
ATOM      9  C   UNL     1      -9.712  14.657  67.615  0.00  0.00    +0.066 C 
ATOM     10  C   UNL     1     -10.884  14.788  66.689  0.00  0.00    -0.003 C 
ATOM     11  C   UNL     1     -11.468  13.608  66.454  0.00  0.00    +0.036 C 
ATOM     12  C   UNL     1     -11.331  12.469  67.365  0.00  0.00    +0.195 C 
ATOM     13  C   UNL     1     -10.231  12.465  68.345  0.00  0.00    +0.038 C 
ATOM     14  O   UNL     1     -12.062  11.438  67.266  0.00  0.00    -0.287 OA
ATOM     15  C   UNL     1     -10.294  15.381  65.289  0.00  0.00    +0.180 C 
ATOM     16  F   UNL     1     -11.658  15.838  64.839  0.00  0.00    -0.233 F 
ATOM     17  C   UNL     1      -8.699  13.902  66.748  0.00  0.00    +0.011 C 
ATOM     18  C   UNL     1      -9.931  13.715  68.719  0.00  0.00    -0.017 C 
ATOM     19  C   UNL     1      -9.981  16.849  65.982  0.00  0.00    +0.042 C 
ATOM     20  C   UNL     1      -7.508  18.549  65.908  0.00  0.00    +0.004 C 
ATOM     21  C   UNL     1      -6.133  16.939  66.926  0.00  0.00    +0.004 C 
ATOM     22  C   UNL     1      -7.434  17.197  69.124  0.00  0.00    +0.039 C 
ATOM     23  C   UNL     1      -6.707  19.776  66.630  0.00  0.00    +0.045 C 
ATOM     24  C   UNL     1      -8.081  20.408  67.250  0.00  0.00    +0.004 C 
ENDROOT
BRANCH   1  25
ATOM     25  C   UNL     1      -4.826  18.968  67.900  0.00  0.00    +0.237 C 
ATOM     26  O   UNL     1      -4.052  18.202  68.409  0.00  0.00    -0.281 OA
BRANCH  25  27
ATOM     27  S   UNL     1      -4.004  20.137  66.803  0.00  0.00    -0.036 S 
BRANCH  27  28
ATOM     28  C   UNL     1      -3.033  19.227  65.581  0.00  0.00    +0.258 C 
ATOM     29  F   UNL     1      -3.876  18.279  65.057  0.00  0.00    -0.221 F 
ENDBRANCH  27  28
ENDBRANCH  25  27
ENDBRANCH   1  25
BRANCH   1  30
ATOM     30  O   UNL     1      -6.630  19.770  69.086  0.00  0.00    -0.448 OA
BRANCH  30  31
ATOM     31  C   UNL     1      -5.688  19.903  70.082  0.00  0.00    +0.317 C 
ATOM     32  O   UNL     1      -5.666  19.146  71.085  0.00  0.00    -0.250 OA
BRANCH  31  34
ATOM     33  C   UNL     1      -4.120  21.114  71.421  0.00  0.00    +0.012 C 
ATOM     34  C   UNL     1      -4.937  21.187  70.240  0.00  0.00    +0.110 C 
ENDBRANCH  31  34
ENDBRANCH  30  31
ENDBRANCH   1  30
TORSDOF 6
ENDMDL
MODEL 6
REMARK VINA RESULT:      -6.0      2.779      7.653
REMARK  Name = 
REMARK  6 active torsions:
REMARK  status: ('A' for Active; 'I' for Inactive)
REMARK    1  A    between atoms: C_2  and  C_3
REMARK    2  A    between atoms: C_3  and  O_5
REMARK    3  A    between atoms: O_5  and  C_6
REMARK    4  A    between atoms: C_6  and  C_7
REMARK    5  A    between atoms: C_7  and  S_9
REMARK    6  A    between atoms: S_9  and  C_10
REMARK                            x       y       z     vdW  Elec       q    Type
REMARK                         _______ _______ _______ _____ _____    ______ ____
ROOT
ATOM      1  C   UNL     1     -10.872  14.248  68.014  0.00  0.00    +0.195 C 
ATOM      2  C   UNL     1     -10.120  13.017  67.810  0.00  0.00    +0.044 C 
ATOM      3  C   UNL     1     -10.752  12.481  66.422  0.00  0.00    +0.007 C 
ATOM      4  C   UNL     1      -9.348  11.578  66.139  0.00  0.00    +0.036 C 
ATOM      5  C   UNL     1      -9.864  10.327  66.985  0.00  0.00    +0.168 C 
ATOM      6  C   UNL     1      -9.581  10.612  68.569  0.00  0.00    +0.182 C 
ATOM      7  O   UNL     1      -8.278  11.353  68.337  0.00  0.00    -0.220 OA
ATOM      8  F   UNL     1     -11.137  10.069  66.806  0.00  0.00    -0.237 F 
ATOM      9  C   UNL     1      -8.853   9.304  66.641  0.00  0.00    +0.066 C 
ATOM     10  C   UNL     1      -9.077   8.841  65.233  0.00  0.00    -0.003 C 
ATOM     11  C   UNL     1      -8.312   7.787  64.927  0.00  0.00    +0.036 C 
ATOM     12  C   UNL     1      -7.755   6.899  65.950  0.00  0.00    +0.195 C 
ATOM     13  C   UNL     1      -7.686   7.368  67.345  0.00  0.00    +0.038 C 
ATOM     14  O   UNL     1      -7.232   5.782  65.657  0.00  0.00    -0.287 OA
ATOM     15  C   UNL     1      -8.670  10.094  64.271  0.00  0.00    +0.180 C 
ATOM     16  F   UNL     1      -9.441   9.527  63.107  0.00  0.00    -0.233 F 
ATOM     17  C   UNL     1      -7.434   9.877  66.570  0.00  0.00    +0.011 C 
ATOM     18  C   UNL     1      -8.693   8.211  67.606  0.00  0.00    -0.017 C 
ATOM     19  C   UNL     1      -9.979  10.970  64.771  0.00  0.00    +0.042 C 
ATOM     20  C   UNL     1     -10.174  13.812  65.717  0.00  0.00    +0.004 C 
ATOM     21  C   UNL     1      -8.742  13.504  67.554  0.00  0.00    +0.004 C 
ATOM     22  C   UNL     1     -10.479  11.979  68.671  0.00  0.00    +0.039 C 
ATOM     23  C   UNL     1     -11.090  14.889  66.536  0.00  0.00    +0.045 C 
ATOM     24  C   UNL     1     -12.466  14.062  66.232  0.00  0.00    +0.004 C 
ENDROOT
BRANCH   1  25
ATOM     25  C   UNL     1     -10.169  15.347  68.715  0.00  0.00    +0.237 C 
ATOM     26  O   UNL     1      -9.417  15.275  69.650  0.00  0.00    -0.281 OA
BRANCH  25  27
ATOM     27  S   UNL     1     -10.290  17.023  68.065  0.00  0.00    -0.036 S 
BRANCH  27  28
ATOM     28  C   UNL     1      -8.671  17.543  67.456  0.00  0.00    +0.258 C 
ATOM     29  F   UNL     1      -8.555  17.020  66.192  0.00  0.00    -0.221 F 
ENDBRANCH  27  28
ENDBRANCH  25  27
ENDBRANCH   1  25
BRANCH   1  30
ATOM     30  O   UNL     1     -12.117  14.120  68.632  0.00  0.00    -0.448 OA
BRANCH  30  31
ATOM     31  C   UNL     1     -12.181  14.322  69.993  0.00  0.00    +0.317 C 
ATOM     32  O   UNL     1     -12.062  13.377  70.813  0.00  0.00    -0.250 OA
BRANCH  31  34
ATOM     33  C   UNL     1     -12.157  15.924  71.767  0.00  0.00    +0.012 C 
ATOM     34  C   UNL     1     -12.813  15.563  70.540  0.00  0.00    +0.110 C 
ENDBRANCH  31  34
ENDBRANCH  30  31
ENDBRANCH   1  30
TORSDOF 6
ENDMDL
MODEL 7
REMARK VINA RESULT:      -5.9      1.823      2.572
REMARK  Name = 
REMARK  6 active torsions:
REMARK  status: ('A' for Active; 'I' for Inactive)
REMARK    1  A    between atoms: C_2  and  C_3
REMARK    2  A    between atoms: C_3  and  O_5
REMARK    3  A    between atoms: O_5  and  C_6
REMARK    4  A    between atoms: C_6  and  C_7
REMARK    5  A    between atoms: C_7  and  S_9
REMARK    6  A    between atoms: S_9  and  C_10
REMARK                            x       y       z     vdW  Elec       q    Type
REMARK                         _______ _______ _______ _____ _____    ______ ____
ROOT
ATOM      1  C   UNL     1      -9.760  14.577  67.218  0.00  0.00    +0.195 C 
ATOM      2  C   UNL     1      -8.655  15.388  67.712  0.00  0.00    +0.044 C 
ATOM      3  C   UNL     1      -8.857  16.752  66.868  0.00  0.00    +0.007 C 
ATOM      4  C   UNL     1      -7.997  17.603  68.053  0.00  0.00    +0.036 C 
ATOM      5  C   UNL     1      -6.579  17.277  67.398  0.00  0.00    +0.168 C 
ATOM      6  C   UNL     1      -6.112  15.785  67.871  0.00  0.00    +0.182 C 
ATOM      7  O   UNL     1      -6.711  15.897  69.261  0.00  0.00    -0.220 OA
ATOM      8  F   UNL     1      -6.586  17.341  66.088  0.00  0.00    -0.237 F 
ATOM      9  C   UNL     1      -5.688  18.170  68.170  0.00  0.00    +0.066 C 
ATOM     10  C   UNL     1      -5.912  19.588  67.738  0.00  0.00    -0.003 C 
ATOM     11  C   UNL     1      -5.007  20.419  68.267  0.00  0.00    +0.036 C 
ATOM     12  C   UNL     1      -3.702  19.957  68.745  0.00  0.00    +0.195 C 
ATOM     13  C   UNL     1      -3.508  18.524  69.025  0.00  0.00    +0.038 C 
ATOM     14  O   UNL     1      -2.766  20.765  69.027  0.00  0.00    -0.287 OA
ATOM     15  C   UNL     1      -7.395  19.999  68.276  0.00  0.00    +0.180 C 
ATOM     16  F   UNL     1      -7.490  21.154  67.312  0.00  0.00    -0.233 F 
ATOM     17  C   UNL     1      -6.052  18.224  69.657  0.00  0.00    +0.011 C 
ATOM     18  C   UNL     1      -4.274  17.780  68.216  0.00  0.00    -0.017 C 
ATOM     19  C   UNL     1      -8.126  18.980  67.200  0.00  0.00    +0.042 C 
ATOM     20  C   UNL     1     -10.278  16.928  67.612  0.00  0.00    +0.004 C 
ATOM     21  C   UNL     1      -9.028  15.637  69.126  0.00  0.00    +0.004 C 
ATOM     22  C   UNL     1      -7.401  14.986  67.250  0.00  0.00    +0.039 C 
ATOM     23  C   UNL     1     -11.000  15.603  66.986  0.00  0.00    +0.045 C 
ATOM     24  C   UNL     1     -10.566  15.995  65.460  0.00  0.00    +0.004 C 
ENDROOT
BRANCH   1  25
ATOM     25  C   UNL     1     -10.350  13.608  68.170  0.00  0.00    +0.237 C 
ATOM     26  O   UNL     1      -9.812  12.689  68.729  0.00  0.00    -0.281 OA
BRANCH  25  27
ATOM     27  S   UNL     1     -12.048  13.842  68.723  0.00  0.00    -0.036 S 
BRANCH  27  28
ATOM     28  C   UNL     1     -12.050  14.238  70.486  0.00  0.00    +0.258 C 
ATOM     29  F   UNL     1     -13.022  13.450  71.051  0.00  0.00    -0.221 F 
ENDBRANCH  27  28
ENDBRANCH  25  27
ENDBRANCH   1  25
BRANCH   1  30
ATOM     30  O   UNL     1      -9.534  13.875  66.032  0.00  0.00    -0.448 OA
BRANCH  30  31
ATOM     31  C   UNL     1     -10.160  12.659  65.878  0.00  0.00    +0.317 C 
ATOM     32  O   UNL     1      -9.520  11.577  65.867  0.00  0.00    -0.250 OA
BRANCH  31  34
ATOM     33  C   UNL     1     -11.435  12.504  63.862  0.00  0.00    +0.012 C 
ATOM     34  C   UNL     1     -11.535  12.589  65.293  0.00  0.00    +0.110 C 
ENDBRANCH  31  34
ENDBRANCH  30  31
ENDBRANCH   1  30
TORSDOF 6
ENDMDL
MODEL 8
REMARK VINA RESULT:      -5.9      2.181      3.741
REMARK  Name = 
REMARK  6 active torsions:
REMARK  status: ('A' for Active; 'I' for Inactive)
REMARK    1  A    between atoms: C_2  and  C_3
REMARK    2  A    between atoms: C_3  and  O_5
REMARK    3  A    between atoms: O_5  and  C_6
REMARK    4  A    between atoms: C_6  and  C_7
REMARK    5  A    between atoms: C_7  and  S_9
REMARK    6  A    between atoms: S_9  and  C_10
REMARK                            x       y       z     vdW  Elec       q    Type
REMARK                         _______ _______ _______ _____ _____    ______ ____
ROOT
ATOM      1  C   UNL     1      -9.958  12.607  67.871  0.00  0.00    +0.195 C 
ATOM      2  C   UNL     1      -9.677  14.015  67.622  0.00  0.00    +0.044 C 
ATOM      3  C   UNL     1      -8.130  14.118  68.079  0.00  0.00    +0.007 C 
ATOM      4  C   UNL     1      -7.940  15.488  67.102  0.00  0.00    +0.036 C 
ATOM      5  C   UNL     1      -8.456  16.487  68.235  0.00  0.00    +0.168 C 
ATOM      6  C   UNL     1     -10.090  16.486  68.231  0.00  0.00    +0.182 C 
ATOM      7  O   UNL     1     -10.216  16.328  66.728  0.00  0.00    -0.220 OA
ATOM      8  F   UNL     1      -8.019  16.183  69.434  0.00  0.00    -0.237 F 
ATOM      9  C   UNL     1      -8.119  17.800  67.643  0.00  0.00    +0.066 C 
ATOM     10  C   UNL     1      -6.635  18.003  67.701  0.00  0.00    -0.003 C 
ATOM     11  C   UNL     1      -6.287  19.246  67.351  0.00  0.00    +0.036 C 
ATOM     12  C   UNL     1      -7.222  20.372  67.423  0.00  0.00    +0.195 C 
ATOM     13  C   UNL     1      -8.667  20.099  67.498  0.00  0.00    +0.038 C 
ATOM     14  O   UNL     1      -6.833  21.574  67.316  0.00  0.00    -0.287 OA
ATOM     15  C   UNL     1      -5.988  16.947  66.641  0.00  0.00    +0.180 C 
ATOM     16  F   UNL     1      -4.628  17.042  67.284  0.00  0.00    -0.233 F 
ATOM     17  C   UNL     1      -8.392  17.855  66.136  0.00  0.00    +0.011 C 
ATOM     18  C   UNL     1      -8.894  18.944  68.137  0.00  0.00    -0.017 C 
ATOM     19  C   UNL     1      -6.400  15.659  67.590  0.00  0.00    +0.042 C 
ATOM     20  C   UNL     1      -7.775  13.084  66.892  0.00  0.00    +0.004 C 
ATOM     21  C   UNL     1      -9.749  14.115  66.143  0.00  0.00    +0.004 C 
ATOM     22  C   UNL     1     -10.271  14.886  68.536  0.00  0.00    +0.039 C 
ATOM     23  C   UNL     1      -8.598  11.804  67.486  0.00  0.00    +0.045 C 
ATOM     24  C   UNL     1      -7.925  11.962  68.966  0.00  0.00    +0.004 C 
ENDROOT
BRANCH   1  25
ATOM     25  C   UNL     1     -10.948  11.961  66.979  0.00  0.00    +0.237 C 
ATOM     26  O   UNL     1     -12.008  12.389  66.605  0.00  0.00    -0.281 OA
BRANCH  25  27
ATOM     27  S   UNL     1     -10.535  10.390  66.200  0.00  0.00    -0.036 S 
BRANCH  27  28
ATOM     28  C   UNL     1     -10.414  10.626  64.413  0.00  0.00    +0.258 C 
ATOM     29  F   UNL     1      -9.560  11.684  64.227  0.00  0.00    -0.221 F 
ENDBRANCH  27  28
ENDBRANCH  25  27
ENDBRANCH   1  25
BRANCH   1  30
ATOM     30  O   UNL     1     -10.323  12.268  69.174  0.00  0.00    -0.448 OA
BRANCH  30  31
ATOM     31  C   UNL     1     -11.659  12.058  69.433  0.00  0.00    +0.317 C 
ATOM     32  O   UNL     1     -12.427  12.994  69.772  0.00  0.00    -0.250 OA
BRANCH  31  34
ATOM     33  C   UNL     1     -11.124   9.948  70.420  0.00  0.00    +0.012 C 
ATOM     34  C   UNL     1     -12.158  10.683  69.745  0.00  0.00    +0.110 C 
ENDBRANCH  31  34
ENDBRANCH  30  31
ENDBRANCH   1  30
TORSDOF 6
ENDMDL
MODEL 9
REMARK VINA RESULT:      -5.7      2.728      4.059
REMARK  Name = 
REMARK  6 active torsions:
REMARK  status: ('A' for Active; 'I' for Inactive)
REMARK    1  A    between atoms: C_2  and  C_3
REMARK    2  A    between atoms: C_3  and  O_5
REMARK    3  A    between atoms: O_5  and  C_6
REMARK    4  A    between atoms: C_6  and  C_7
REMARK    5  A    between atoms: C_7  and  S_9
REMARK    6  A    between atoms: S_9  and  C_10
REMARK                            x       y       z     vdW  Elec       q    Type
REMARK                         _______ _______ _______ _____ _____    ______ ____
ROOT
ATOM      1  C   UNL     1      -9.364   9.847  67.116  0.00  0.00    +0.195 C 
ATOM      2  C   UNL     1      -9.709  11.227  67.431  0.00  0.00    +0.044 C 
ATOM      3  C   UNL     1      -9.497  11.945  65.998  0.00  0.00    +0.007 C 
ATOM      4  C   UNL     1     -10.544  13.187  66.473  0.00  0.00    +0.036 C 
ATOM      5  C   UNL     1      -9.386  14.023  67.186  0.00  0.00    +0.168 C 
ATOM      6  C   UNL     1      -9.140  13.410  68.680  0.00  0.00    +0.182 C 
ATOM      7  O   UNL     1     -10.600  13.075  68.925  0.00  0.00    -0.220 OA
ATOM      8  F   UNL     1      -8.258  14.019  66.518  0.00  0.00    -0.237 F 
ATOM      9  C   UNL     1     -10.074  15.304  67.456  0.00  0.00    +0.066 C 
ATOM     10  C   UNL     1     -10.251  16.052  66.169  0.00  0.00    -0.003 C 
ATOM     11  C   UNL     1     -10.699  17.296  66.373  0.00  0.00    +0.036 C 
ATOM     12  C   UNL     1     -10.529  17.992  67.651  0.00  0.00    +0.195 C 
ATOM     13  C   UNL     1     -10.223  17.206  68.859  0.00  0.00    +0.038 C 
ATOM     14  O   UNL     1     -10.741  19.236  67.771  0.00  0.00    -0.287 OA
ATOM     15  C   UNL     1     -11.355  15.220  65.306  0.00  0.00    +0.180 C 
ATOM     16  F   UNL     1     -10.931  15.877  64.018  0.00  0.00    -0.233 F 
ATOM     17  C   UNL     1     -11.522  15.111  67.918  0.00  0.00    +0.011 C 
ATOM     18  C   UNL     1      -9.513  16.116  68.542  0.00  0.00    -0.017 C 
ATOM     19  C   UNL     1     -10.304  13.968  65.068  0.00  0.00    +0.042 C 
ATOM     20  C   UNL     1     -10.683  11.012  65.426  0.00  0.00    +0.004 C 
ATOM     21  C   UNL     1     -11.161  11.153  67.722  0.00  0.00    +0.004 C 
ATOM     22  C   UNL     1      -8.749  11.895  68.194  0.00  0.00    +0.039 C 
ATOM     23  C   UNL     1      -9.920   9.579  65.612  0.00  0.00    +0.045 C 
ATOM     24  C   UNL     1      -8.567  10.117  64.871  0.00  0.00    +0.004 C 
ENDROOT
BRANCH   1  25
ATOM     25  C   UNL     1     -10.068   8.796  67.886  0.00  0.00    +0.237 C 
ATOM     26  O   UNL     1     -10.368   8.797  69.051  0.00  0.00    -0.281 OA
BRANCH  25  27
ATOM     27  S   UNL     1     -10.717   7.357  67.018  0.00  0.00    -0.036 S 
BRANCH  27  28
ATOM     28  C   UNL     1     -10.601   5.910  68.094  0.00  0.00    +0.258 C 
ATOM     29  F   UNL     1     -11.627   6.025  68.997  0.00  0.00    -0.221 F 
ENDBRANCH  27  28
ENDBRANCH  25  27
ENDBRANCH   1  25
BRANCH   1  30
ATOM     30  O   UNL     1      -8.008   9.521  67.155  0.00  0.00    -0.448 OA
BRANCH  30  31
ATOM     31  C   UNL     1      -7.570   8.720  68.186  0.00  0.00    +0.317 C 
ATOM     32  O   UNL     1      -7.214   9.196  69.294  0.00  0.00    -0.250 OA
BRANCH  31  34
ATOM     33  C   UNL     1      -6.856   7.186  66.497  0.00  0.00    +0.012 C 
ATOM     34  C   UNL     1      -7.091   7.331  67.908  0.00  0.00    +0.110 C 
ENDBRANCH  31  34
ENDBRANCH  30  31
ENDBRANCH   1  30
TORSDOF 6
ENDMDL
