MODEL 1
REMARK VINA RESULT:      -6.3      0.000      0.000
REMARK  Name = 
REMARK  3 active torsions:
REMARK  status: ('A' for Active; 'I' for Inactive)
REMARK    1  A    between atoms: N_4  and  C_5
REMARK    2  A    between atoms: C_7  and  N_8
REMARK    3  A    between atoms: C_11  and  C_12
REMARK                            x       y       z     vdW  Elec       q    Type
REMARK                         _______ _______ _______ _____ _____    ______ ____
ROOT
ATOM      1  C   UNL     1     -10.467  14.491  68.749  0.00  0.00    +0.210 C 
ATOM      2  O   UNL     1      -9.727  15.596  69.515  0.00  0.00    -0.333 OA
ATOM      3  C   UNL     1      -8.994  15.685  68.194  0.00  0.00    +0.180 C 
ATOM      4  C   UNL     1     -10.261  16.670  67.587  0.00  0.00    +0.221 C 
ATOM      5  C   UNL     1     -11.430  15.636  68.044  0.00  0.00    +0.088 C 
ENDROOT
BRANCH   1  13
ATOM      6  C   UNL     1     -13.534  15.672  72.303  0.00  0.00    +0.038 C 
ATOM      7  C   UNL     1     -12.917  14.851  71.610  0.00  0.00    +0.053 A 
ATOM      8  C   UNL     1     -13.241  13.506  71.743  0.00  0.00    +0.280 A 
ATOM      9  O   UNL     1     -14.037  13.213  72.656  0.00  0.00    -0.265 OA
ATOM     10  N   UNL     1     -12.684  12.545  70.969  0.00  0.00    -0.153 NA
ATOM     11  C   UNL     1     -11.926  12.907  69.908  0.00  0.00    +0.354 A 
ATOM     12  O   UNL     1     -11.847  12.156  68.891  0.00  0.00    -0.244 OA
ATOM     13  N   UNL     1     -11.547  14.207  69.871  0.00  0.00    -0.256 N 
ATOM     14  C   UNL     1     -11.957  15.156  70.653  0.00  0.00    +0.082 A 
ENDBRANCH   1  13
BRANCH   4  15
ATOM     15  N   UNL     1     -10.107  16.038  66.169  0.00  0.00    +0.090 NA
ATOM     16  N   UNL     1     -10.505  16.696  65.218  0.00  0.00    -0.014 NA
ATOM     17  N   UNL     1     -11.323  16.754  64.283  0.00  0.00    -0.328 NA
ENDBRANCH   4  15
BRANCH   3  18
ATOM     18  C   UNL     1      -8.039  16.918  68.685  0.00  0.00    +0.214 C 
ATOM     19  O   UNL     1      -7.005  16.455  69.410  0.00  0.00    -0.218 OA
ENDBRANCH   3  18
TORSDOF 3
ENDMDL
MODEL 2
REMARK VINA RESULT:      -6.2      4.017      4.937
REMARK  Name = 
REMARK  3 active torsions:
REMARK  status: ('A' for Active; 'I' for Inactive)
REMARK    1  A    between atoms: N_4  and  C_5
REMARK    2  A    between atoms: C_7  and  N_8
REMARK    3  A    between atoms: C_11  and  C_12
REMARK                            x       y       z     vdW  Elec       q    Type
REMARK                         _______ _______ _______ _____ _____    ______ ____
ROOT
ATOM      1  C   UNL     1      -9.322  16.252  65.826  0.00  0.00    +0.210 C 
ATOM      2  O   UNL     1      -8.320  15.309  66.506  0.00  0.00    -0.333 OA
ATOM      3  C   UNL     1      -7.563  16.612  66.651  0.00  0.00    +0.180 C 
ATOM      4  C   UNL     1      -8.493  16.966  68.049  0.00  0.00    +0.221 C 
ATOM      5  C   UNL     1      -9.912  16.682  67.310  0.00  0.00    +0.088 C 
ENDROOT
BRANCH   1  13
ATOM      6  C   UNL     1     -11.824  12.256  66.918  0.00  0.00    +0.038 C 
ATOM      7  C   UNL     1     -11.541  13.207  66.178  0.00  0.00    +0.053 A 
ATOM      8  C   UNL     1     -12.350  13.443  65.073  0.00  0.00    +0.280 A 
ATOM      9  O   UNL     1     -13.225  12.588  64.832  0.00  0.00    -0.265 OA
ATOM     10  N   UNL     1     -12.172  14.508  64.256  0.00  0.00    -0.153 NA
ATOM     11  C   UNL     1     -11.303  15.480  64.617  0.00  0.00    +0.354 A 
ATOM     12  O   UNL     1     -11.481  16.674  64.234  0.00  0.00    -0.244 OA
ATOM     13  N   UNL     1     -10.462  15.171  65.634  0.00  0.00    -0.256 N 
ATOM     14  C   UNL     1     -10.509  14.115  66.383  0.00  0.00    +0.082 A 
ENDBRANCH   1  13
BRANCH   4  15
ATOM     15  N   UNL     1      -8.490  18.485  67.696  0.00  0.00    +0.090 NA
ATOM     16  N   UNL     1      -9.194  19.219  68.376  0.00  0.00    -0.014 NA
ATOM     17  N   UNL     1     -10.172  19.986  68.378  0.00  0.00    -0.328 NA
ENDBRANCH   4  15
BRANCH   3  18
ATOM     18  C   UNL     1      -6.313  15.920  67.448  0.00  0.00    +0.214 C 
ATOM     19  O   UNL     1      -5.152  16.182  66.822  0.00  0.00    -0.218 OA
ENDBRANCH   3  18
TORSDOF 3
ENDMDL
MODEL 3
REMARK VINA RESULT:      -6.2      3.497      4.580
REMARK  Name = 
REMARK  3 active torsions:
REMARK  status: ('A' for Active; 'I' for Inactive)
REMARK    1  A    between atoms: N_4  and  C_5
REMARK    2  A    between atoms: C_7  and  N_8
REMARK    3  A    between atoms: C_11  and  C_12
REMARK                            x       y       z     vdW  Elec       q    Type
REMARK                         _______ _______ _______ _____ _____    ______ ____
ROOT
ATOM      1  C   UNL     1     -10.735  13.964  67.038  0.00  0.00    +0.210 C 
ATOM      2  O   UNL     1     -11.960  14.265  66.162  0.00  0.00    -0.333 OA
ATOM      3  C   UNL     1     -11.088  13.578  65.132  0.00  0.00    +0.180 C 
ATOM      4  C   UNL     1     -11.629  12.061  65.726  0.00  0.00    +0.221 C 
ATOM      5  C   UNL     1     -11.294  12.426  67.275  0.00  0.00    +0.088 C 
ENDROOT
BRANCH   1  13
ATOM      6  C   UNL     1     -12.835  13.418  71.365  0.00  0.00    +0.038 C 
ATOM      7  C   UNL     1     -12.454  14.104  70.407  0.00  0.00    +0.053 A 
ATOM      8  C   UNL     1     -12.503  15.488  70.528  0.00  0.00    +0.280 A 
ATOM      9  O   UNL     1     -13.061  15.937  71.549  0.00  0.00    -0.265 OA
ATOM     10  N   UNL     1     -12.030  16.318  69.570  0.00  0.00    -0.153 NA
ATOM     11  C   UNL     1     -11.318  15.804  68.540  0.00  0.00    +0.354 A 
ATOM     12  O   UNL     1     -10.433  16.500  67.962  0.00  0.00    -0.244 OA
ATOM     13  N   UNL     1     -11.380  14.458  68.397  0.00  0.00    -0.256 N 
ATOM     14  C   UNL     1     -11.917  13.615  69.222  0.00  0.00    +0.082 A 
ENDBRANCH   1  13
BRANCH   4  15
ATOM     15  N   UNL     1     -10.229  11.429  65.459  0.00  0.00    +0.090 NA
ATOM     16  N   UNL     1     -10.182  10.216  65.313  0.00  0.00    -0.014 NA
ATOM     17  N   UNL     1      -9.748   9.144  65.771  0.00  0.00    -0.328 NA
ENDBRANCH   4  15
BRANCH   3  18
ATOM     18  C   UNL     1     -12.206  13.705  63.945  0.00  0.00    +0.214 C 
ATOM     19  O   UNL     1     -12.664  14.967  63.861  0.00  0.00    -0.218 OA
ENDBRANCH   3  18
TORSDOF 3
ENDMDL
MODEL 4
REMARK VINA RESULT:      -6.1      2.180      2.302
REMARK  Name = 
REMARK  3 active torsions:
REMARK  status: ('A' for Active; 'I' for Inactive)
REMARK    1  A    between atoms: N_4  and  C_5
REMARK    2  A    between atoms: C_7  and  N_8
REMARK    3  A    between atoms: C_11  and  C_12
REMARK                            x       y       z     vdW  Elec       q    Type
REMARK                         _______ _______ _______ _____ _____    ______ ____
ROOT
ATOM      1  C   UNL     1     -10.910  13.278  67.653  0.00  0.00    +0.210 C 
ATOM      2  O   UNL     1     -10.285  14.677  67.753  0.00  0.00    -0.333 OA
ATOM      3  C   UNL     1      -9.830  14.307  66.357  0.00  0.00    +0.180 C 
ATOM      4  C   UNL     1     -11.358  14.808  65.755  0.00  0.00    +0.221 C 
ATOM      5  C   UNL     1     -12.194  13.920  66.831  0.00  0.00    +0.088 C 
ENDROOT
BRANCH   1  13
ATOM      6  C   UNL     1     -13.169  15.490  71.319  0.00  0.00    +0.038 C 
ATOM      7  C   UNL     1     -12.676  14.494  70.772  0.00  0.00    +0.053 A 
ATOM      8  C   UNL     1     -12.885  13.252  71.359  0.00  0.00    +0.280 A 
ATOM      9  O   UNL     1     -13.439  13.250  72.475  0.00  0.00    -0.265 OA
ATOM     10  N   UNL     1     -12.460  12.099  70.789  0.00  0.00    -0.153 NA
ATOM     11  C   UNL     1     -11.980  12.123  69.524  0.00  0.00    +0.354 A 
ATOM     12  O   UNL     1     -12.087  11.105  68.778  0.00  0.00    -0.244 OA
ATOM     13  N   UNL     1     -11.694  13.351  69.027  0.00  0.00    -0.256 N 
ATOM     14  C   UNL     1     -11.973  14.492  69.573  0.00  0.00    +0.082 A 
ENDBRANCH   1  13
BRANCH   4  15
ATOM     15  N   UNL     1     -11.332  13.679  64.680  0.00  0.00    +0.090 NA
ATOM     16  N   UNL     1     -12.411  13.278  64.265  0.00  0.00    -0.014 NA
ATOM     17  N   UNL     1     -13.182  12.305  64.187  0.00  0.00    -0.328 NA
ENDBRANCH   4  15
BRANCH   3  18
ATOM     18  C   UNL     1      -9.073  15.735  66.110  0.00  0.00    +0.214 C 
ATOM     19  O   UNL     1      -7.861  15.734  66.693  0.00  0.00    -0.218 OA
ENDBRANCH   3  18
TORSDOF 3
ENDMDL
MODEL 5
REMARK VINA RESULT:      -6.1      2.974      4.625
REMARK  Name = 
REMARK  3 active torsions:
REMARK  status: ('A' for Active; 'I' for Inactive)
REMARK    1  A    between atoms: N_4  and  C_5
REMARK    2  A    between atoms: C_7  and  N_8
REMARK    3  A    between atoms: C_11  and  C_12
REMARK                            x       y       z     vdW  Elec       q    Type
REMARK                         _______ _______ _______ _____ _____    ______ ____
ROOT
ATOM      1  C   UNL     1     -12.055  13.407  67.043  0.00  0.00    +0.210 C 
ATOM      2  O   UNL     1     -12.059  12.407  65.878  0.00  0.00    -0.333 OA
ATOM      3  C   UNL     1     -12.177  13.695  65.092  0.00  0.00    +0.180 C 
ATOM      4  C   UNL     1     -10.474  13.882  65.195  0.00  0.00    +0.221 C 
ATOM      5  C   UNL     1     -10.439  13.664  66.806  0.00  0.00    +0.088 C 
ENDROOT
BRANCH   1  13
ATOM      6  C   UNL     1     -10.475   9.189  68.813  0.00  0.00    +0.038 C 
ATOM      7  C   UNL     1     -11.068  10.271  68.917  0.00  0.00    +0.053 A 
ATOM      8  C   UNL     1     -11.477  10.678  70.181  0.00  0.00    +0.280 A 
ATOM      9  O   UNL     1     -11.337   9.852  71.104  0.00  0.00    -0.265 OA
ATOM     10  N   UNL     1     -12.054  11.882  70.405  0.00  0.00    -0.153 NA
ATOM     11  C   UNL     1     -12.074  12.802  69.412  0.00  0.00    +0.354 A 
ATOM     12  O   UNL     1     -12.078  14.038  69.684  0.00  0.00    -0.244 OA
ATOM     13  N   UNL     1     -11.768  12.339  68.176  0.00  0.00    -0.256 N 
ATOM     14  C   UNL     1     -11.317  11.162  67.879  0.00  0.00    +0.082 A 
ENDBRANCH   1  13
BRANCH   4  15
ATOM     15  N   UNL     1     -10.626  15.431  65.300  0.00  0.00    +0.090 NA
ATOM     16  N   UNL     1      -9.597  16.093  65.319  0.00  0.00    -0.014 NA
ATOM     17  N   UNL     1      -8.890  16.868  65.987  0.00  0.00    -0.328 NA
ENDBRANCH   4  15
BRANCH   3  18
ATOM     18  C   UNL     1     -12.177  12.936  63.643  0.00  0.00    +0.214 C 
ATOM     19  O   UNL     1     -13.185  12.047  63.577  0.00  0.00    -0.218 OA
ENDBRANCH   3  18
TORSDOF 3
ENDMDL
MODEL 6
REMARK VINA RESULT:      -6.1      3.915      6.488
REMARK  Name = 
REMARK  3 active torsions:
REMARK  status: ('A' for Active; 'I' for Inactive)
REMARK    1  A    between atoms: N_4  and  C_5
REMARK    2  A    between atoms: C_7  and  N_8
REMARK    3  A    between atoms: C_11  and  C_12
REMARK                            x       y       z     vdW  Elec       q    Type
REMARK                         _______ _______ _______ _____ _____    ______ ____
ROOT
ATOM      1  C   UNL     1      -9.630  15.101  65.809  0.00  0.00    +0.210 C 
ATOM      2  O   UNL     1     -10.865  15.458  64.970  0.00  0.00    -0.333 OA
ATOM      3  C   UNL     1     -11.002  13.951  64.971  0.00  0.00    +0.180 C 
ATOM      4  C   UNL     1     -11.762  14.048  66.507  0.00  0.00    +0.221 C 
ATOM      5  C   UNL     1     -10.589  14.972  67.150  0.00  0.00    +0.088 C 
ENDROOT
BRANCH   1  13
ATOM      6  C   UNL     1     -10.505  19.724  66.942  0.00  0.00    +0.038 C 
ATOM      7  C   UNL     1      -9.752  18.795  66.623  0.00  0.00    +0.053 A 
ATOM      8  C   UNL     1      -8.381  19.019  66.655  0.00  0.00    +0.280 A 
ATOM      9  O   UNL     1      -8.014  20.191  66.870  0.00  0.00    -0.265 OA
ATOM     10  N   UNL     1      -7.479  18.041  66.406  0.00  0.00    -0.153 NA
ATOM     11  C   UNL     1      -7.903  16.760  66.304  0.00  0.00    +0.354 A 
ATOM     12  O   UNL     1      -7.134  15.803  66.615  0.00  0.00    -0.244 OA
ATOM     13  N   UNL     1      -9.241  16.592  66.172  0.00  0.00    -0.256 N 
ATOM     14  C   UNL     1     -10.152  17.506  66.287  0.00  0.00    +0.082 A 
ENDBRANCH   1  13
BRANCH   4  15
ATOM     15  N   UNL     1     -11.097  12.708  66.949  0.00  0.00    +0.090 NA
ATOM     16  N   UNL     1     -11.832  11.842  67.401  0.00  0.00    -0.014 NA
ATOM     17  N   UNL     1     -12.120  11.161  68.402  0.00  0.00    -0.328 NA
ENDBRANCH   4  15
BRANCH   3  18
ATOM     18  C   UNL     1     -12.383  13.968  64.096  0.00  0.00    +0.214 C 
ATOM     19  O   UNL     1     -12.385  12.965  63.199  0.00  0.00    -0.218 OA
ENDBRANCH   3  18
TORSDOF 3
ENDMDL
MODEL 7
REMARK VINA RESULT:      -6.0      4.085      6.471
REMARK  Name = 
REMARK  3 active torsions:
REMARK  status: ('A' for Active; 'I' for Inactive)
REMARK    1  A    between atoms: N_4  and  C_5
REMARK    2  A    between atoms: C_7  and  N_8
REMARK    3  A    between atoms: C_11  and  C_12
REMARK                            x       y       z     vdW  Elec       q    Type
REMARK                         _______ _______ _______ _____ _____    ______ ____
ROOT
ATOM      1  C   UNL     1     -11.701  11.902  66.390  0.00  0.00    +0.210 C 
ATOM      2  O   UNL     1     -11.427  12.336  67.837  0.00  0.00    -0.333 OA
ATOM      3  C   UNL     1     -11.525  10.840  68.047  0.00  0.00    +0.180 C 
ATOM      4  C   UNL     1      -9.885  10.692  67.564  0.00  0.00    +0.221 C 
ATOM      5  C   UNL     1     -10.096  11.552  66.200  0.00  0.00    +0.088 C 
ENDROOT
BRANCH   1  13
ATOM      6  C   UNL     1      -9.625  16.241  65.852  0.00  0.00    +0.038 C 
ATOM      7  C   UNL     1     -10.517  15.413  65.622  0.00  0.00    +0.053 A 
ATOM      8  C   UNL     1     -11.440  15.703  64.625  0.00  0.00    +0.280 A 
ATOM      9  O   UNL     1     -11.383  16.845  64.128  0.00  0.00    -0.265 OA
ATOM     10  N   UNL     1     -12.397  14.824  64.244  0.00  0.00    -0.153 NA
ATOM     11  C   UNL     1     -12.352  13.554  64.708  0.00  0.00    +0.354 A 
ATOM     12  O   UNL     1     -12.826  12.602  64.020  0.00  0.00    -0.244 OA
ATOM     13  N   UNL     1     -11.512  13.337  65.749  0.00  0.00    -0.256 N 
ATOM     14  C   UNL     1     -10.650  14.173  66.235  0.00  0.00    +0.082 A 
ENDBRANCH   1  13
BRANCH   4  15
ATOM     15  N   UNL     1     -10.186   9.325  66.877  0.00  0.00    +0.090 NA
ATOM     16  N   UNL     1      -9.242   8.737  66.366  0.00  0.00    -0.014 NA
ATOM     17  N   UNL     1      -8.752   8.312  65.305  0.00  0.00    -0.328 NA
ENDBRANCH   4  15
BRANCH   3  18
ATOM     18  C   UNL     1     -11.222  10.939  69.651  0.00  0.00    +0.214 C 
ATOM     19  O   UNL     1     -11.987  11.889  70.218  0.00  0.00    -0.218 OA
ENDBRANCH   3  18
TORSDOF 3
ENDMDL
MODEL 8
REMARK VINA RESULT:      -6.0      3.575      6.067
REMARK  Name = 
REMARK  3 active torsions:
REMARK  status: ('A' for Active; 'I' for Inactive)
REMARK    1  A    between atoms: N_4  and  C_5
REMARK    2  A    between atoms: C_7  and  N_8
REMARK    3  A    between atoms: C_11  and  C_12
REMARK                            x       y       z     vdW  Elec       q    Type
REMARK                         _______ _______ _______ _____ _____    ______ ____
ROOT
ATOM      1  C   UNL     1     -12.105  14.010  66.888  0.00  0.00    +0.210 C 
ATOM      2  O   UNL     1     -10.855  14.901  66.911  0.00  0.00    -0.333 OA
ATOM      3  C   UNL     1     -11.650  15.572  68.011  0.00  0.00    +0.180 C 
ATOM      4  C   UNL     1     -11.077  14.386  69.112  0.00  0.00    +0.221 C 
ATOM      5  C   UNL     1     -11.497  13.139  68.156  0.00  0.00    +0.088 C 
ENDROOT
BRANCH   1  13
ATOM      6  C   UNL     1      -9.926   9.921  65.489  0.00  0.00    +0.038 C 
ATOM      7  C   UNL     1     -10.417  11.036  65.268  0.00  0.00    +0.053 A 
ATOM      8  C   UNL     1     -10.593  11.425  63.945  0.00  0.00    +0.280 A 
ATOM      9  O   UNL     1     -10.111  10.673  63.075  0.00  0.00    -0.265 OA
ATOM     10  N   UNL     1     -11.200  12.587  63.605  0.00  0.00    -0.153 NA
ATOM     11  C   UNL     1     -11.822  13.314  64.561  0.00  0.00    +0.354 A 
ATOM     12  O   UNL     1     -12.812  14.047  64.267  0.00  0.00    -0.244 OA
ATOM     13  N   UNL     1     -11.543  12.965  65.841  0.00  0.00    -0.256 N 
ATOM     14  C   UNL     1     -10.873  11.927  66.232  0.00  0.00    +0.082 A 
ENDBRANCH   1  13
BRANCH   4  15
ATOM     15  N   UNL     1     -12.438  14.401  69.874  0.00  0.00    +0.090 NA
ATOM     16  N   UNL     1     -12.479  13.828  70.954  0.00  0.00    -0.014 NA
ATOM     17  N   UNL     1     -12.982  12.891  71.599  0.00  0.00    -0.328 NA
ENDBRANCH   4  15
BRANCH   3  18
ATOM     18  C   UNL     1     -10.486  16.675  68.326  0.00  0.00    +0.214 C 
ATOM     19  O   UNL     1     -10.937  17.919  68.086  0.00  0.00    -0.218 OA
ENDBRANCH   3  18
TORSDOF 3
ENDMDL
MODEL 9
REMARK VINA RESULT:      -5.9      2.661      5.516
REMARK  Name = 
REMARK  3 active torsions:
REMARK  status: ('A' for Active; 'I' for Inactive)
REMARK    1  A    between atoms: N_4  and  C_5
REMARK    2  A    between atoms: C_7  and  N_8
REMARK    3  A    between atoms: C_11  and  C_12
REMARK                            x       y       z     vdW  Elec       q    Type
REMARK                         _______ _______ _______ _____ _____    ______ ____
ROOT
ATOM      1  C   UNL     1     -11.137  16.130  68.167  0.00  0.00    +0.210 C 
ATOM      2  O   UNL     1     -10.625  14.931  68.977  0.00  0.00    -0.333 OA
ATOM      3  C   UNL     1     -11.936  14.351  68.489  0.00  0.00    +0.180 C 
ATOM      4  C   UNL     1     -11.172  13.940  67.009  0.00  0.00    +0.221 C 
ATOM      5  C   UNL     1     -10.562  15.430  66.784  0.00  0.00    +0.088 C 
ENDROOT
BRANCH   1  13
ATOM      6  C   UNL     1      -6.386  16.883  68.706  0.00  0.00    +0.038 C 
ATOM      7  C   UNL     1      -7.563  17.268  68.667  0.00  0.00    +0.053 A 
ATOM      8  C   UNL     1      -7.807  18.636  68.677  0.00  0.00    +0.280 A 
ATOM      9  O   UNL     1      -6.821  19.376  68.864  0.00  0.00    -0.265 OA
ATOM     10  N   UNL     1      -9.052  19.152  68.551  0.00  0.00    -0.153 NA
ATOM     11  C   UNL     1     -10.078  18.334  68.222  0.00  0.00    +0.354 A 
ATOM     12  O   UNL     1     -11.075  18.781  67.581  0.00  0.00    -0.244 OA
ATOM     13  N   UNL     1      -9.828  17.006  68.324  0.00  0.00    -0.256 N 
ATOM     14  C   UNL     1      -8.680  16.450  68.554  0.00  0.00    +0.082 A 
ENDBRANCH   1  13
BRANCH   4  15
ATOM     15  N   UNL     1     -12.483  14.240  66.220  0.00  0.00    +0.090 NA
ATOM     16  N   UNL     1     -12.525  13.886  65.050  0.00  0.00    -0.014 NA
ATOM     17  N   UNL     1     -12.614  14.263  63.868  0.00  0.00    -0.328 NA
ENDBRANCH   4  15
BRANCH   3  18
ATOM     18  C   UNL     1     -11.690  12.907  69.216  0.00  0.00    +0.214 C 
ATOM     19  O   UNL     1     -12.140  12.934  70.483  0.00  0.00    -0.218 OA
ENDBRANCH   3  18
TORSDOF 3
ENDMDL
