MODEL 1
REMARK VINA RESULT:      -8.3      0.000      0.000
REMARK  Name = 
REMARK  6 active torsions:
REMARK  status: ('A' for Active; 'I' for Inactive)
REMARK    1  A    between atoms: C_7  and  C_8
REMARK    2  A    between atoms: C_8  and  S_9
REMARK    3  A    between atoms: C_16  and  C_17
REMARK    4  A    between atoms: C_20  and  C_21
REMARK    5  A    between atoms: C_25  and  C_26
REMARK    6  A    between atoms: C_26  and  S_27
REMARK                            x       y       z     vdW  Elec       q    Type
REMARK                         _______ _______ _______ _____ _____    ______ ____
ROOT
ATOM      1  C   UNL     1     -10.890   6.812  71.996  0.00  0.00    -0.000 A 
ATOM      2  C   UNL     1     -12.274   7.191  71.561  0.00  0.00    -0.000 A 
ATOM      3  C   UNL     1     -12.543   8.567  71.027  0.00  0.00    -0.000 A 
ATOM      4  C   UNL     1     -11.427   9.563  70.928  0.00  0.00    -0.000 A 
ATOM      5  C   UNL     1     -10.042   9.185  71.363  0.00  0.00    -0.000 A 
ATOM      6  C   UNL     1      -9.774   7.809  71.897  0.00  0.00    -0.000 A 
ENDROOT
BRANCH   1  12
ATOM      7  C   UNL     1     -10.337   5.110  71.601  0.00  0.00    +0.001 C 
ATOM      8  C   UNL     1      -9.847   3.908  70.850  0.00  0.00    +0.012 C 
ATOM      9  C   UNL     1      -9.388   3.180  69.621  0.00  0.00    +0.075 C 
ATOM     10  C   UNL     1      -9.863   4.505  70.141  0.00  0.00    +0.170 C 
ATOM     11  C   UNL     1     -10.131   4.357  71.610  0.00  0.00    +0.012 C 
ATOM     12  C   UNL     1     -10.622   5.436  72.530  0.00  0.00    -0.001 C 
ATOM     13  O   UNL     1     -10.040   5.757  69.334  0.00  0.00    -0.292 OA
ATOM     14  C   UNL     1      -9.078   1.765  70.008  0.00  0.00    +0.009 C 
ATOM     15  C   UNL     1      -9.346   1.618  71.477  0.00  0.00    +0.005 C 
ATOM     16  C   UNL     1      -9.821   2.942  71.997  0.00  0.00    +0.026 C 
ATOM     17  C   UNL     1     -10.086   5.249  70.223  0.00  0.00    +0.001 C 
BRANCH   9  18
ATOM     18  C   UNL     1      -9.261   3.766  68.246  0.00  0.00    +0.133 C 
BRANCH  18  19
ATOM     19  S   UNL     1      -8.212   3.252  67.306  0.00  0.00    -0.107 S 
ATOM     20  O   UNL     1      -7.163   2.738  66.365  0.00  0.00    -0.291 OA
ATOM     21  O   UNL     1      -7.167   4.036  68.043  0.00  0.00    -0.371 OA
ATOM     22  O   UNL     1      -9.257   2.468  66.569  0.00  0.00    -0.371 OA
ENDBRANCH  18  19
ENDBRANCH   9  18
ENDBRANCH   1  12
BRANCH   4  23
ATOM     23  C   UNL     1     -11.695  10.939  70.394  0.00  0.00    -0.001 C 
ATOM     24  C   UNL     1     -11.469  11.238  68.942  0.00  0.00    +0.012 C 
ATOM     25  C   UNL     1     -10.980  10.266  67.909  0.00  0.00    +0.026 C 
ATOM     26  C   UNL     1     -11.420  11.683  68.131  0.00  0.00    +0.012 C 
ATOM     27  C   UNL     1     -11.341  12.404  66.818  0.00  0.00    +0.075 C 
ATOM     28  C   UNL     1     -10.852  11.433  65.784  0.00  0.00    +0.009 C 
ATOM     29  C   UNL     1     -11.915  12.825  68.967  0.00  0.00    +0.001 C 
ATOM     30  C   UNL     1     -11.705  11.585  69.599  0.00  0.00    +0.001 C 
ATOM     31  C   UNL     1     -10.628  10.112  66.459  0.00  0.00    +0.005 C 
ATOM     32  C   UNL     1     -11.692  12.558  68.268  0.00  0.00    +0.170 C 
ATOM     33  O   UNL     1     -12.181  13.813  68.927  0.00  0.00    -0.292 OA
BRANCH  27  34
ATOM     34  C   UNL     1     -11.690  13.844  66.579  0.00  0.00    +0.133 C 
BRANCH  34  35
ATOM     35  S   UNL     1     -12.117  14.296  65.214  0.00  0.00    -0.107 S 
ATOM     36  O   UNL     1     -12.544  14.748  63.849  0.00  0.00    -0.291 OA
ATOM     37  O   UNL     1     -10.729  14.797  64.946  0.00  0.00    -0.371 OA
ATOM     38  O   UNL     1     -13.504  13.795  65.483  0.00  0.00    -0.371 OA
ENDBRANCH  34  35
ENDBRANCH  27  34
ENDBRANCH   4  23
TORSDOF 6
ENDMDL
MODEL 2
REMARK VINA RESULT:      -8.0      4.760     10.638
REMARK  Name = 
REMARK  6 active torsions:
REMARK  status: ('A' for Active; 'I' for Inactive)
REMARK    1  A    between atoms: C_7  and  C_8
REMARK    2  A    between atoms: C_8  and  S_9
REMARK    3  A    between atoms: C_16  and  C_17
REMARK    4  A    between atoms: C_20  and  C_21
REMARK    5  A    between atoms: C_25  and  C_26
REMARK    6  A    between atoms: C_26  and  S_27
REMARK                            x       y       z     vdW  Elec       q    Type
REMARK                         _______ _______ _______ _____ _____    ______ ____
ROOT
ATOM      1  C   UNL     1     -11.053  16.214  68.747  0.00  0.00    -0.000 A 
ATOM      2  C   UNL     1     -11.298  16.179  70.227  0.00  0.00    -0.000 A 
ATOM      3  C   UNL     1     -11.813  14.927  70.872  0.00  0.00    -0.000 A 
ATOM      4  C   UNL     1     -12.082  13.709  70.040  0.00  0.00    -0.000 A 
ATOM      5  C   UNL     1     -11.837  13.744  68.560  0.00  0.00    -0.000 A 
ATOM      6  C   UNL     1     -11.323  14.996  67.914  0.00  0.00    -0.000 A 
ENDROOT
BRANCH   1  12
ATOM      7  C   UNL     1      -9.577  17.232  68.370  0.00  0.00    +0.001 C 
ATOM      8  C   UNL     1      -8.159  17.714  68.291  0.00  0.00    +0.012 C 
ATOM      9  C   UNL     1      -6.685  17.616  68.552  0.00  0.00    +0.075 C 
ATOM     10  C   UNL     1      -8.003  16.930  68.761  0.00  0.00    +0.170 C 
ATOM     11  C   UNL     1      -9.070  17.775  68.129  0.00  0.00    +0.012 C 
ATOM     12  C   UNL     1     -10.538  17.466  68.102  0.00  0.00    -0.001 C 
ATOM     13  O   UNL     1      -8.216  15.630  69.477  0.00  0.00    -0.292 OA
ATOM     14  C   UNL     1      -6.027  18.823  67.952  0.00  0.00    +0.009 C 
ATOM     15  C   UNL     1      -7.095  19.667  67.320  0.00  0.00    +0.005 C 
ATOM     16  C   UNL     1      -8.412  18.981  67.530  0.00  0.00    +0.026 C 
ATOM     17  C   UNL     1      -8.576  16.439  68.963  0.00  0.00    +0.001 C 
BRANCH   9  18
ATOM     18  C   UNL     1      -5.991  16.506  69.284  0.00  0.00    +0.133 C 
BRANCH  18  19
ATOM     19  S   UNL     1      -4.591  16.698  69.784  0.00  0.00    -0.107 S 
ATOM     20  O   UNL     1      -3.189  16.890  70.284  0.00  0.00    -0.291 OA
ATOM     21  O   UNL     1      -5.123  17.342  71.030  0.00  0.00    -0.371 OA
ATOM     22  O   UNL     1      -4.058  16.054  68.539  0.00  0.00    -0.371 OA
ENDBRANCH  18  19
ENDBRANCH   9  18
ENDBRANCH   1  12
BRANCH   4  23
ATOM     23  C   UNL     1     -12.597  12.457  70.685  0.00  0.00    -0.001 C 
ATOM     24  C   UNL     1     -11.866  11.161  70.498  0.00  0.00    +0.012 C 
ATOM     25  C   UNL     1     -10.613  10.965  69.696  0.00  0.00    +0.026 C 
ATOM     26  C   UNL     1     -11.630  10.266  70.551  0.00  0.00    +0.012 C 
ATOM     27  C   UNL     1     -11.248   8.819  70.636  0.00  0.00    +0.075 C 
ATOM     28  C   UNL     1      -9.995   8.621  69.834  0.00  0.00    +0.009 C 
ATOM     29  C   UNL     1     -12.864  10.208  71.400  0.00  0.00    +0.001 C 
ATOM     30  C   UNL     1     -12.496  11.452  70.855  0.00  0.00    +0.001 C 
ATOM     31  C   UNL     1      -9.603   9.948  69.254  0.00  0.00    +0.005 C 
ATOM     32  C   UNL     1     -12.258   9.835  71.078  0.00  0.00    +0.170 C 
ATOM     33  O   UNL     1     -13.451   9.572  71.948  0.00  0.00    -0.292 OA
BRANCH  27  34
ATOM     34  C   UNL     1     -11.989   7.754  71.390  0.00  0.00    +0.133 C 
BRANCH  34  35
ATOM     35  S   UNL     1     -11.241   6.597  71.984  0.00  0.00    -0.107 S 
ATOM     36  O   UNL     1     -10.493   5.440  72.577  0.00  0.00    -0.291 OA
ATOM     37  O   UNL     1     -11.029   7.381  73.244  0.00  0.00    -0.371 OA
ATOM     38  O   UNL     1     -11.453   5.814  70.723  0.00  0.00    -0.371 OA
ENDBRANCH  34  35
ENDBRANCH  27  34
ENDBRANCH   4  23
TORSDOF 6
ENDMDL
MODEL 3
REMARK VINA RESULT:      -8.0      4.766     10.627
REMARK  Name = 
REMARK  6 active torsions:
REMARK  status: ('A' for Active; 'I' for Inactive)
REMARK    1  A    between atoms: C_7  and  C_8
REMARK    2  A    between atoms: C_8  and  S_9
REMARK    3  A    between atoms: C_16  and  C_17
REMARK    4  A    between atoms: C_20  and  C_21
REMARK    5  A    between atoms: C_25  and  C_26
REMARK    6  A    between atoms: C_26  and  S_27
REMARK                            x       y       z     vdW  Elec       q    Type
REMARK                         _______ _______ _______ _____ _____    ______ ____
ROOT
ATOM      1  C   UNL     1     -11.031  16.221  68.793  0.00  0.00    -0.000 A 
ATOM      2  C   UNL     1     -11.322  15.015  67.951  0.00  0.00    -0.000 A 
ATOM      3  C   UNL     1     -11.838  13.760  68.591  0.00  0.00    -0.000 A 
ATOM      4  C   UNL     1     -12.063  13.712  70.072  0.00  0.00    -0.000 A 
ATOM      5  C   UNL     1     -11.772  14.918  70.915  0.00  0.00    -0.000 A 
ATOM      6  C   UNL     1     -11.256  16.173  70.276  0.00  0.00    -0.000 A 
ENDROOT
BRANCH   1  12
ATOM      7  C   UNL     1      -9.551  17.229  68.402  0.00  0.00    +0.001 C 
ATOM      8  C   UNL     1      -8.130  17.698  68.305  0.00  0.00    +0.012 C 
ATOM      9  C   UNL     1      -6.653  17.583  68.539  0.00  0.00    +0.075 C 
ATOM     10  C   UNL     1      -7.974  16.908  68.763  0.00  0.00    +0.170 C 
ATOM     11  C   UNL     1      -9.043  17.770  68.160  0.00  0.00    +0.012 C 
ATOM     12  C   UNL     1     -10.515  17.476  68.154  0.00  0.00    -0.001 C 
ATOM     13  O   UNL     1      -8.188  15.600  69.467  0.00  0.00    -0.292 OA
ATOM     14  C   UNL     1      -5.993  18.790  67.942  0.00  0.00    +0.009 C 
ATOM     15  C   UNL     1      -7.063  19.652  67.339  0.00  0.00    +0.005 C 
ATOM     16  C   UNL     1      -8.383  18.977  67.563  0.00  0.00    +0.026 C 
ATOM     17  C   UNL     1      -8.548  16.420  68.969  0.00  0.00    +0.001 C 
BRANCH   9  18
ATOM     18  C   UNL     1      -5.958  16.457  69.246  0.00  0.00    +0.133 C 
BRANCH  18  19
ATOM     19  S   UNL     1      -4.567  16.647  69.771  0.00  0.00    -0.107 S 
ATOM     20  O   UNL     1      -3.174  16.837  70.297  0.00  0.00    -0.291 OA
ATOM     21  O   UNL     1      -4.010  16.034  68.521  0.00  0.00    -0.371 OA
ATOM     22  O   UNL     1      -5.122  17.261  71.023  0.00  0.00    -0.371 OA
ENDBRANCH  18  19
ENDBRANCH   9  18
ENDBRANCH   1  12
BRANCH   4  23
ATOM     23  C   UNL     1     -12.579  12.457  70.712  0.00  0.00    -0.001 C 
ATOM     24  C   UNL     1     -11.858  11.158  70.507  0.00  0.00    +0.012 C 
ATOM     25  C   UNL     1     -10.614  10.961  69.692  0.00  0.00    +0.026 C 
ATOM     26  C   UNL     1     -11.627  10.262  70.549  0.00  0.00    +0.012 C 
ATOM     27  C   UNL     1     -11.253   8.811  70.618  0.00  0.00    +0.075 C 
ATOM     28  C   UNL     1     -10.009   8.613  69.804  0.00  0.00    +0.009 C 
ATOM     29  C   UNL     1     -12.853  10.203  71.410  0.00  0.00    +0.001 C 
ATOM     30  C   UNL     1     -12.483  11.450  70.872  0.00  0.00    +0.001 C 
ATOM     31  C   UNL     1      -9.614   9.942  69.231  0.00  0.00    +0.005 C 
ATOM     32  C   UNL     1     -12.253   9.830  71.079  0.00  0.00    +0.170 C 
ATOM     33  O   UNL     1     -13.439   9.566  71.958  0.00  0.00    -0.292 OA
BRANCH  27  34
ATOM     34  C   UNL     1     -11.993   7.744  71.370  0.00  0.00    +0.133 C 
BRANCH  34  35
ATOM     35  S   UNL     1     -11.243   6.591  71.970  0.00  0.00    -0.107 S 
ATOM     36  O   UNL     1     -10.493   5.439  72.569  0.00  0.00    -0.291 OA
ATOM     37  O   UNL     1     -11.478   5.791  70.723  0.00  0.00    -0.371 OA
ATOM     38  O   UNL     1     -11.009   7.393  73.215  0.00  0.00    -0.371 OA
ENDBRANCH  34  35
ENDBRANCH  27  34
ENDBRANCH   4  23
TORSDOF 6
ENDMDL
MODEL 4
REMARK VINA RESULT:      -7.8      3.419      4.093
REMARK  Name = 
REMARK  6 active torsions:
REMARK  status: ('A' for Active; 'I' for Inactive)
REMARK    1  A    between atoms: C_7  and  C_8
REMARK    2  A    between atoms: C_8  and  S_9
REMARK    3  A    between atoms: C_16  and  C_17
REMARK    4  A    between atoms: C_20  and  C_21
REMARK    5  A    between atoms: C_25  and  C_26
REMARK    6  A    between atoms: C_26  and  S_27
REMARK                            x       y       z     vdW  Elec       q    Type
REMARK                         _______ _______ _______ _____ _____    ______ ____
ROOT
ATOM      1  C   UNL     1     -12.058   7.625  71.324  0.00  0.00    -0.000 A 
ATOM      2  C   UNL     1     -11.062   8.054  70.288  0.00  0.00    -0.000 A 
ATOM      3  C   UNL     1     -11.012   9.486  69.844  0.00  0.00    -0.000 A 
ATOM      4  C   UNL     1     -11.956  10.488  70.436  0.00  0.00    -0.000 A 
ATOM      5  C   UNL     1     -12.952  10.060  71.473  0.00  0.00    -0.000 A 
ATOM      6  C   UNL     1     -13.003   8.628  71.917  0.00  0.00    -0.000 A 
ENDROOT
BRANCH   1  12
ATOM      7  C   UNL     1     -11.371   6.361  72.460  0.00  0.00    +0.001 C 
ATOM      8  C   UNL     1     -10.550   5.695  73.524  0.00  0.00    +0.012 C 
ATOM      9  C   UNL     1      -9.503   5.664  74.598  0.00  0.00    +0.075 C 
ATOM     10  C   UNL     1     -10.189   6.546  73.596  0.00  0.00    +0.170 C 
ATOM     11  C   UNL     1     -11.197   5.714  72.860  0.00  0.00    +0.012 C 
ATOM     12  C   UNL     1     -12.108   6.193  71.768  0.00  0.00    -0.001 C 
ATOM     13  O   UNL     1      -9.915   8.003  73.370  0.00  0.00    -0.292 OA
ATOM     14  C   UNL     1      -9.440   4.269  75.144  0.00  0.00    +0.009 C 
ATOM     15  C   UNL     1     -10.449   3.438  74.408  0.00  0.00    +0.005 C 
ATOM     16  C   UNL     1     -11.134   4.319  73.406  0.00  0.00    +0.026 C 
ATOM     17  C   UNL     1     -10.425   7.143  73.150  0.00  0.00    +0.001 C 
BRANCH   9  18
ATOM     18  C   UNL     1      -8.666   6.825  75.046  0.00  0.00    +0.133 C 
BRANCH  18  19
ATOM     19  S   UNL     1      -7.310   6.587  75.638  0.00  0.00    -0.107 S 
ATOM     20  O   UNL     1      -5.952   6.349  76.231  0.00  0.00    -0.291 OA
ATOM     21  O   UNL     1      -6.773   6.258  74.277  0.00  0.00    -0.371 OA
ATOM     22  O   UNL     1      -7.845   6.917  77.000  0.00  0.00    -0.371 OA
ENDBRANCH  18  19
ENDBRANCH   9  18
ENDBRANCH   1  12
BRANCH   4  23
ATOM     23  C   UNL     1     -11.905  11.920  69.992  0.00  0.00    -0.001 C 
ATOM     24  C   UNL     1     -11.566  12.253  68.569  0.00  0.00    +0.012 C 
ATOM     25  C   UNL     1     -11.255  11.265  67.484  0.00  0.00    +0.026 C 
ATOM     26  C   UNL     1     -11.392  12.727  67.792  0.00  0.00    +0.012 C 
ATOM     27  C   UNL     1     -11.112  13.495  66.534  0.00  0.00    +0.075 C 
ATOM     28  C   UNL     1     -10.800  12.508  65.448  0.00  0.00    +0.009 C 
ATOM     29  C   UNL     1     -11.665  13.894  68.693  0.00  0.00    +0.001 C 
ATOM     30  C   UNL     1     -11.748  12.602  69.243  0.00  0.00    +0.001 C 
ATOM     31  C   UNL     1     -10.889  11.130  66.035  0.00  0.00    +0.005 C 
ATOM     32  C   UNL     1     -11.477  13.630  67.983  0.00  0.00    +0.170 C 
ATOM     33  O   UNL     1     -11.713  14.917  68.715  0.00  0.00    -0.292 OA
BRANCH  27  34
ATOM     34  C   UNL     1     -11.137  14.988  66.387  0.00  0.00    +0.133 C 
BRANCH  34  35
ATOM     35  S   UNL     1     -11.410  15.605  65.048  0.00  0.00    -0.107 S 
ATOM     36  O   UNL     1     -11.682  16.222  63.708  0.00  0.00    -0.291 OA
ATOM     37  O   UNL     1     -10.195  16.472  65.200  0.00  0.00    -0.371 OA
ATOM     38  O   UNL     1     -12.624  14.738  64.896  0.00  0.00    -0.371 OA
ENDBRANCH  34  35
ENDBRANCH  27  34
ENDBRANCH   4  23
TORSDOF 6
ENDMDL
MODEL 5
REMARK VINA RESULT:      -7.8      3.605      4.982
REMARK  Name = 
REMARK  6 active torsions:
REMARK  status: ('A' for Active; 'I' for Inactive)
REMARK    1  A    between atoms: C_7  and  C_8
REMARK    2  A    between atoms: C_8  and  S_9
REMARK    3  A    between atoms: C_16  and  C_17
REMARK    4  A    between atoms: C_20  and  C_21
REMARK    5  A    between atoms: C_25  and  C_26
REMARK    6  A    between atoms: C_26  and  S_27
REMARK                            x       y       z     vdW  Elec       q    Type
REMARK                         _______ _______ _______ _____ _____    ______ ____
ROOT
ATOM      1  C   UNL     1     -10.961   7.714  71.270  0.00  0.00    -0.000 A 
ATOM      2  C   UNL     1     -10.416   7.004  70.065  0.00  0.00    -0.000 A 
ATOM      3  C   UNL     1     -10.285   7.733  68.761  0.00  0.00    -0.000 A 
ATOM      4  C   UNL     1     -10.698   9.171  68.660  0.00  0.00    -0.000 A 
ATOM      5  C   UNL     1     -11.242   9.881  69.864  0.00  0.00    -0.000 A 
ATOM      6  C   UNL     1     -11.374   9.153  71.169  0.00  0.00    -0.000 A 
ENDROOT
BRANCH   1  12
ATOM      7  C   UNL     1     -10.169   7.315  72.873  0.00  0.00    +0.001 C 
ATOM      8  C   UNL     1      -9.182   7.258  74.002  0.00  0.00    +0.012 C 
ATOM      9  C   UNL     1      -7.886   7.592  74.678  0.00  0.00    +0.075 C 
ATOM     10  C   UNL     1      -8.695   7.802  73.431  0.00  0.00    +0.170 C 
ATOM     11  C   UNL     1      -9.985   7.051  73.584  0.00  0.00    +0.012 C 
ATOM     12  C   UNL     1     -11.092   6.985  72.574  0.00  0.00    -0.001 C 
ATOM     13  O   UNL     1      -8.285   8.617  72.241  0.00  0.00    -0.292 OA
ATOM     14  C   UNL     1      -7.874   6.920  76.018  0.00  0.00    +0.009 C 
ATOM     15  C   UNL     1      -9.165   6.170  76.171  0.00  0.00    +0.005 C 
ATOM     16  C   UNL     1      -9.973   6.379  74.925  0.00  0.00    +0.026 C 
ATOM     17  C   UNL     1      -8.958   8.019  72.729  0.00  0.00    +0.001 C 
BRANCH   9  18
ATOM     18  C   UNL     1      -6.792   8.449  74.112  0.00  0.00    +0.133 C 
BRANCH  18  19
ATOM     19  S   UNL     1      -5.708   8.970  75.007  0.00  0.00    -0.107 S 
ATOM     20  O   UNL     1      -4.624   9.491  75.904  0.00  0.00    -0.291 OA
ATOM     21  O   UNL     1      -6.610  10.082  75.453  0.00  0.00    -0.371 OA
ATOM     22  O   UNL     1      -4.805   7.858  74.562  0.00  0.00    -0.371 OA
ENDBRANCH  18  19
ENDBRANCH   9  18
ENDBRANCH   1  12
BRANCH   4  23
ATOM     23  C   UNL     1     -10.567   9.899  67.356  0.00  0.00    -0.001 C 
ATOM     24  C   UNL     1     -10.946  11.347  67.263  0.00  0.00    +0.012 C 
ATOM     25  C   UNL     1     -11.470  12.194  68.386  0.00  0.00    +0.026 C 
ATOM     26  C   UNL     1     -11.099  12.199  66.932  0.00  0.00    +0.012 C 
ATOM     27  C   UNL     1     -11.346  13.578  66.396  0.00  0.00    +0.075 C 
ATOM     28  C   UNL     1     -11.869  14.426  67.518  0.00  0.00    +0.009 C 
ATOM     29  C   UNL     1     -10.599  11.569  65.667  0.00  0.00    +0.001 C 
ATOM     30  C   UNL     1     -10.671  10.767  66.821  0.00  0.00    +0.001 C 
ATOM     31  C   UNL     1     -11.946  13.569  68.748  0.00  0.00    +0.005 C 
ATOM     32  C   UNL     1     -10.870  12.203  66.034  0.00  0.00    +0.170 C 
ATOM     33  O   UNL     1     -10.400  11.760  64.680  0.00  0.00    -0.292 OA
BRANCH  27  34
ATOM     34  C   UNL     1     -11.111  14.031  64.985  0.00  0.00    +0.133 C 
BRANCH  34  35
ATOM     35  S   UNL     1     -11.241  15.483  64.632  0.00  0.00    -0.107 S 
ATOM     36  O   UNL     1     -11.371  16.936  64.279  0.00  0.00    -0.291 OA
ATOM     37  O   UNL     1      -9.872  15.741  65.189  0.00  0.00    -0.371 OA
ATOM     38  O   UNL     1     -12.609  15.225  64.076  0.00  0.00    -0.371 OA
ENDBRANCH  34  35
ENDBRANCH  27  34
ENDBRANCH   4  23
TORSDOF 6
ENDMDL
MODEL 6
REMARK VINA RESULT:      -7.8      5.830     11.926
REMARK  Name = 
REMARK  6 active torsions:
REMARK  status: ('A' for Active; 'I' for Inactive)
REMARK    1  A    between atoms: C_7  and  C_8
REMARK    2  A    between atoms: C_8  and  S_9
REMARK    3  A    between atoms: C_16  and  C_17
REMARK    4  A    between atoms: C_20  and  C_21
REMARK    5  A    between atoms: C_25  and  C_26
REMARK    6  A    between atoms: C_26  and  S_27
REMARK                            x       y       z     vdW  Elec       q    Type
REMARK                         _______ _______ _______ _____ _____    ______ ____
ROOT
ATOM      1  C   UNL     1      -9.429  17.591  66.760  0.00  0.00    -0.000 A 
ATOM      2  C   UNL     1      -9.043  16.286  66.130  0.00  0.00    -0.000 A 
ATOM      3  C   UNL     1      -9.696  15.013  66.580  0.00  0.00    -0.000 A 
ATOM      4  C   UNL     1     -10.735  15.044  67.660  0.00  0.00    -0.000 A 
ATOM      5  C   UNL     1     -11.122  16.350  68.291  0.00  0.00    -0.000 A 
ATOM      6  C   UNL     1     -10.469  17.622  67.841  0.00  0.00    -0.000 A 
ENDROOT
BRANCH   1  12
ATOM      7  C   UNL     1      -8.120  18.828  67.096  0.00  0.00    +0.001 C 
ATOM      8  C   UNL     1      -6.970  19.551  67.732  0.00  0.00    +0.012 C 
ATOM      9  C   UNL     1      -5.906  19.740  68.772  0.00  0.00    +0.075 C 
ATOM     10  C   UNL     1      -7.027  18.845  68.331  0.00  0.00    +0.170 C 
ATOM     11  C   UNL     1      -7.628  19.434  67.089  0.00  0.00    +0.012 C 
ATOM     12  C   UNL     1      -8.776  18.864  66.310  0.00  0.00    -0.001 C 
ATOM     13  O   UNL     1      -7.468  17.584  69.012  0.00  0.00    -0.292 OA
ATOM     14  C   UNL     1      -5.157  20.998  68.446  0.00  0.00    +0.009 C 
ATOM     15  C   UNL     1      -5.759  21.586  67.203  0.00  0.00    +0.005 C 
ATOM     16  C   UNL     1      -6.879  20.692  66.762  0.00  0.00    +0.026 C 
ATOM     17  C   UNL     1      -7.556  18.275  68.261  0.00  0.00    +0.001 C 
BRANCH   9  18
ATOM     18  C   UNL     1      -5.638  18.831  69.934  0.00  0.00    +0.133 C 
BRANCH  18  19
ATOM     19  S   UNL     1      -4.914  19.350  71.141  0.00  0.00    -0.107 S 
ATOM     20  O   UNL     1      -4.190  19.869  72.348  0.00  0.00    -0.291 OA
ATOM     21  O   UNL     1      -6.115  20.169  71.510  0.00  0.00    -0.371 OA
ATOM     22  O   UNL     1      -3.712  18.532  70.773  0.00  0.00    -0.371 OA
ENDBRANCH  18  19
ENDBRANCH   9  18
ENDBRANCH   1  12
BRANCH   4  23
ATOM     23  C   UNL     1     -11.388  13.772  68.110  0.00  0.00    -0.001 C 
ATOM     24  C   UNL     1     -10.549  12.569  68.427  0.00  0.00    +0.012 C 
ATOM     25  C   UNL     1      -9.054  12.491  68.340  0.00  0.00    +0.026 C 
ATOM     26  C   UNL     1     -10.292  11.714  68.677  0.00  0.00    +0.012 C 
ATOM     27  C   UNL     1      -9.877  10.331  69.082  0.00  0.00    +0.075 C 
ATOM     28  C   UNL     1      -8.381  10.252  68.995  0.00  0.00    +0.009 C 
ATOM     29  C   UNL     1     -11.773  11.544  68.842  0.00  0.00    +0.001 C 
ATOM     30  C   UNL     1     -11.295  12.796  68.411  0.00  0.00    +0.001 C 
ATOM     31  C   UNL     1      -7.873  11.587  68.536  0.00  0.00    +0.005 C 
ATOM     32  C   UNL     1     -11.057  11.235  68.886  0.00  0.00    +0.170 C 
ATOM     33  O   UNL     1     -12.494  10.868  69.109  0.00  0.00    -0.292 OA
BRANCH  27  34
ATOM     34  C   UNL     1     -10.795   9.221  69.501  0.00  0.00    +0.133 C 
BRANCH  34  35
ATOM     35  S   UNL     1     -10.317   8.175  70.464  0.00  0.00    -0.107 S 
ATOM     36  O   UNL     1      -9.838   7.129  71.426  0.00  0.00    -0.291 OA
ATOM     37  O   UNL     1     -10.158   7.205  69.331  0.00  0.00    -0.371 OA
ATOM     38  O   UNL     1     -10.475   9.146  71.596  0.00  0.00    -0.371 OA
ENDBRANCH  34  35
ENDBRANCH  27  34
ENDBRANCH   4  23
TORSDOF 6
ENDMDL
MODEL 7
REMARK VINA RESULT:      -7.7      2.174      3.221
REMARK  Name = 
REMARK  6 active torsions:
REMARK  status: ('A' for Active; 'I' for Inactive)
REMARK    1  A    between atoms: C_7  and  C_8
REMARK    2  A    between atoms: C_8  and  S_9
REMARK    3  A    between atoms: C_16  and  C_17
REMARK    4  A    between atoms: C_20  and  C_21
REMARK    5  A    between atoms: C_25  and  C_26
REMARK    6  A    between atoms: C_26  and  S_27
REMARK                            x       y       z     vdW  Elec       q    Type
REMARK                         _______ _______ _______ _____ _____    ______ ____
ROOT
ATOM      1  C   UNL     1     -10.439   8.258  72.040  0.00  0.00    -0.000 A 
ATOM      2  C   UNL     1      -9.180   8.732  71.375  0.00  0.00    -0.000 A 
ATOM      3  C   UNL     1      -9.233   9.305  69.990  0.00  0.00    -0.000 A 
ATOM      4  C   UNL     1     -10.543   9.405  69.269  0.00  0.00    -0.000 A 
ATOM      5  C   UNL     1     -11.803   8.931  69.933  0.00  0.00    -0.000 A 
ATOM      6  C   UNL     1     -11.750   8.358  71.318  0.00  0.00    -0.000 A 
ENDROOT
BRANCH   1  12
ATOM      7  C   UNL     1     -10.274   6.738  73.049  0.00  0.00    +0.001 C 
ATOM      8  C   UNL     1     -10.113   5.301  73.448  0.00  0.00    +0.012 C 
ATOM      9  C   UNL     1      -9.943   3.836  73.173  0.00  0.00    +0.075 C 
ATOM     10  C   UNL     1     -10.091   5.184  72.529  0.00  0.00    +0.170 C 
ATOM     11  C   UNL     1     -10.219   6.207  73.618  0.00  0.00    +0.012 C 
ATOM     12  C   UNL     1     -10.387   7.685  73.424  0.00  0.00    -0.001 C 
ATOM     13  O   UNL     1     -10.108   5.458  71.055  0.00  0.00    -0.292 OA
ATOM     14  C   UNL     1      -9.873   3.123  74.490  0.00  0.00    +0.009 C 
ATOM     15  C   UNL     1     -10.002   4.147  75.579  0.00  0.00    +0.005 C 
ATOM     16  C   UNL     1     -10.150   5.493  74.935  0.00  0.00    +0.026 C 
ATOM     17  C   UNL     1     -10.154   5.778  72.026  0.00  0.00    +0.001 C 
BRANCH   9  18
ATOM     18  C   UNL     1      -9.856   3.198  71.819  0.00  0.00    +0.133 C 
BRANCH  18  19
ATOM     19  S   UNL     1      -9.159   1.881  71.654  0.00  0.00    -0.107 S 
ATOM     20  O   UNL     1      -8.462   0.563  71.489  0.00  0.00    -0.291 OA
ATOM     21  O   UNL     1      -7.835   2.585  71.625  0.00  0.00    -0.371 OA
ATOM     22  O   UNL     1     -10.483   1.176  71.683  0.00  0.00    -0.371 OA
ENDBRANCH  18  19
ENDBRANCH   9  18
ENDBRANCH   1  12
BRANCH   4  23
ATOM     23  C   UNL     1     -10.595   9.978  67.884  0.00  0.00    -0.001 C 
ATOM     24  C   UNL     1     -11.027  11.399  67.676  0.00  0.00    +0.012 C 
ATOM     25  C   UNL     1     -11.432  12.363  68.751  0.00  0.00    +0.026 C 
ATOM     26  C   UNL     1     -11.244  12.204  67.271  0.00  0.00    +0.012 C 
ATOM     27  C   UNL     1     -11.596  13.507  66.617  0.00  0.00    +0.075 C 
ATOM     28  C   UNL     1     -12.002  14.472  67.692  0.00  0.00    +0.009 C 
ATOM     29  C   UNL     1     -10.886  11.439  66.033  0.00  0.00    +0.001 C 
ATOM     30  C   UNL     1     -10.791  10.775  67.271  0.00  0.00    +0.001 C 
ATOM     31  C   UNL     1     -11.901  13.764  69.011  0.00  0.00    +0.005 C 
ATOM     32  C   UNL     1     -11.128  12.106  66.357  0.00  0.00    +0.170 C 
ATOM     33  O   UNL     1     -10.815  11.516  65.014  0.00  0.00    -0.292 OA
BRANCH  27  34
ATOM     34  C   UNL     1     -11.550  13.796  65.145  0.00  0.00    +0.133 C 
BRANCH  34  35
ATOM     35  S   UNL     1     -11.426  15.211  64.662  0.00  0.00    -0.107 S 
ATOM     36  O   UNL     1     -11.301  16.625  64.179  0.00  0.00    -0.291 OA
ATOM     37  O   UNL     1     -12.805  15.133  64.079  0.00  0.00    -0.371 OA
ATOM     38  O   UNL     1     -10.046  15.288  65.246  0.00  0.00    -0.371 OA
ENDBRANCH  34  35
ENDBRANCH  27  34
ENDBRANCH   4  23
TORSDOF 6
ENDMDL
MODEL 8
REMARK VINA RESULT:      -7.6      3.464      5.796
REMARK  Name = 
REMARK  6 active torsions:
REMARK  status: ('A' for Active; 'I' for Inactive)
REMARK    1  A    between atoms: C_7  and  C_8
REMARK    2  A    between atoms: C_8  and  S_9
REMARK    3  A    between atoms: C_16  and  C_17
REMARK    4  A    between atoms: C_20  and  C_21
REMARK    5  A    between atoms: C_25  and  C_26
REMARK    6  A    between atoms: C_26  and  S_27
REMARK                            x       y       z     vdW  Elec       q    Type
REMARK                         _______ _______ _______ _____ _____    ______ ____
ROOT
ATOM      1  C   UNL     1      -9.012  10.195  65.210  0.00  0.00    -0.000 A 
ATOM      2  C   UNL     1      -8.126  10.977  66.134  0.00  0.00    -0.000 A 
ATOM      3  C   UNL     1      -8.662  12.186  66.843  0.00  0.00    -0.000 A 
ATOM      4  C   UNL     1     -10.082  12.613  66.627  0.00  0.00    -0.000 A 
ATOM      5  C   UNL     1     -10.969  11.832  65.703  0.00  0.00    -0.000 A 
ATOM      6  C   UNL     1     -10.434  10.623  64.995  0.00  0.00    -0.000 A 
ENDROOT
BRANCH   1  12
ATOM      7  C   UNL     1      -8.695   8.393  65.308  0.00  0.00    +0.001 C 
ATOM      8  C   UNL     1      -8.626   6.982  65.813  0.00  0.00    +0.012 C 
ATOM      9  C   UNL     1      -8.838   5.904  66.834  0.00  0.00    +0.075 C 
ATOM     10  C   UNL     1      -9.015   7.369  66.561  0.00  0.00    +0.170 C 
ATOM     11  C   UNL     1      -8.495   7.649  65.182  0.00  0.00    +0.012 C 
ATOM     12  C   UNL     1      -8.477   8.987  64.502  0.00  0.00    -0.001 C 
ATOM     13  O   UNL     1      -9.607   8.375  67.502  0.00  0.00    -0.292 OA
ATOM     14  C   UNL     1      -8.340   4.613  66.254  0.00  0.00    +0.009 C 
ATOM     15  C   UNL     1      -7.820   4.895  64.875  0.00  0.00    +0.005 C 
ATOM     16  C   UNL     1      -7.997   6.359  64.602  0.00  0.00    +0.026 C 
ATOM     17  C   UNL     1      -9.183   8.130  66.603  0.00  0.00    +0.001 C 
BRANCH   9  18
ATOM     18  C   UNL     1      -9.441   6.084  68.195  0.00  0.00    +0.133 C 
BRANCH  18  19
ATOM     19  S   UNL     1      -8.874   5.346  69.370  0.00  0.00    -0.107 S 
ATOM     20  O   UNL     1      -8.307   4.608  70.547  0.00  0.00    -0.291 OA
ATOM     21  O   UNL     1     -10.131   4.532  69.466  0.00  0.00    -0.371 OA
ATOM     22  O   UNL     1      -7.618   6.160  69.276  0.00  0.00    -0.371 OA
ENDBRANCH  18  19
ENDBRANCH   9  18
ENDBRANCH   1  12
BRANCH   4  23
ATOM     23  C   UNL     1     -10.618  13.822  67.336  0.00  0.00    -0.001 C 
ATOM     24  C   UNL     1     -11.358  13.666  68.631  0.00  0.00    +0.012 C 
ATOM     25  C   UNL     1     -11.639  12.371  69.335  0.00  0.00    +0.026 C 
ATOM     26  C   UNL     1     -11.830  13.858  69.406  0.00  0.00    +0.012 C 
ATOM     27  C   UNL     1     -12.593  14.168  70.659  0.00  0.00    +0.075 C 
ATOM     28  C   UNL     1     -12.874  12.873  71.364  0.00  0.00    +0.009 C 
ATOM     29  C   UNL     1     -11.677  15.261  68.901  0.00  0.00    +0.001 C 
ATOM     30  C   UNL     1     -11.124  14.219  68.133  0.00  0.00    +0.001 C 
ATOM     31  C   UNL     1     -12.284  11.763  70.545  0.00  0.00    +0.005 C 
ATOM     32  C   UNL     1     -11.948  14.776  69.449  0.00  0.00    +0.170 C 
ATOM     33  O   UNL     1     -11.901  16.237  69.116  0.00  0.00    -0.292 OA
BRANCH  27  34
ATOM     34  C   UNL     1     -13.004  15.533  71.127  0.00  0.00    +0.133 C 
BRANCH  34  35
ATOM     35  S   UNL     1     -13.073  15.833  72.595  0.00  0.00    -0.107 S 
ATOM     36  O   UNL     1     -13.143  16.134  74.063  0.00  0.00    -0.291 OA
ATOM     37  O   UNL     1     -14.563  15.972  72.496  0.00  0.00    -0.371 OA
ATOM     38  O   UNL     1     -11.583  15.695  72.693  0.00  0.00    -0.371 OA
ENDBRANCH  34  35
ENDBRANCH  27  34
ENDBRANCH   4  23
TORSDOF 6
ENDMDL
MODEL 9
REMARK VINA RESULT:      -7.6      2.957      4.648
REMARK  Name = 
REMARK  6 active torsions:
REMARK  status: ('A' for Active; 'I' for Inactive)
REMARK    1  A    between atoms: C_7  and  C_8
REMARK    2  A    between atoms: C_8  and  S_9
REMARK    3  A    between atoms: C_16  and  C_17
REMARK    4  A    between atoms: C_20  and  C_21
REMARK    5  A    between atoms: C_25  and  C_26
REMARK    6  A    between atoms: C_26  and  S_27
REMARK                            x       y       z     vdW  Elec       q    Type
REMARK                         _______ _______ _______ _____ _____    ______ ____
ROOT
ATOM      1  C   UNL     1      -9.253   7.351  67.895  0.00  0.00    -0.000 A 
ATOM      2  C   UNL     1     -10.539   7.843  67.300  0.00  0.00    -0.000 A 
ATOM      3  C   UNL     1     -10.948   9.275  67.476  0.00  0.00    -0.000 A 
ATOM      4  C   UNL     1     -10.072  10.216  68.247  0.00  0.00    -0.000 A 
ATOM      5  C   UNL     1      -8.785   9.725  68.842  0.00  0.00    -0.000 A 
ATOM      6  C   UNL     1      -8.376   8.293  68.666  0.00  0.00    -0.000 A 
ENDROOT
BRANCH   1  12
ATOM      7  C   UNL     1      -9.203   5.682  68.649  0.00  0.00    +0.001 C 
ATOM      8  C   UNL     1      -9.371   4.548  69.616  0.00  0.00    +0.012 C 
ATOM      9  C   UNL     1      -9.808   3.937  70.914  0.00  0.00    +0.075 C 
ATOM     10  C   UNL     1      -9.755   5.216  70.131  0.00  0.00    +0.170 C 
ATOM     11  C   UNL     1      -9.101   4.926  68.813  0.00  0.00    +0.012 C 
ATOM     12  C   UNL     1      -8.844   5.919  67.719  0.00  0.00    -0.001 C 
ATOM     13  O   UNL     1     -10.266   6.551  70.587  0.00  0.00    -0.292 OA
ATOM     14  C   UNL     1      -9.457   2.480  70.882  0.00  0.00    +0.009 C 
ATOM     15  C   UNL     1      -8.803   2.190  69.563  0.00  0.00    +0.005 C 
ATOM     16  C   UNL     1      -8.750   3.468  68.781  0.00  0.00    +0.026 C 
ATOM     17  C   UNL     1      -9.817   5.955  69.886  0.00  0.00    +0.001 C 
BRANCH   9  18
ATOM     18  C   UNL     1     -10.478   4.658  72.046  0.00  0.00    +0.133 C 
BRANCH  18  19
ATOM     19  S   UNL     1     -10.283   4.186  73.456  0.00  0.00    -0.107 S 
ATOM     20  O   UNL     1     -10.088   3.713  74.867  0.00  0.00    -0.291 OA
ATOM     21  O   UNL     1     -11.622   3.511  73.416  0.00  0.00    -0.371 OA
ATOM     22  O   UNL     1      -8.944   4.860  73.497  0.00  0.00    -0.371 OA
ENDBRANCH  18  19
ENDBRANCH   9  18
ENDBRANCH   1  12
BRANCH   4  23
ATOM     23  C   UNL     1     -10.481  11.648  68.423  0.00  0.00    -0.001 C 
ATOM     24  C   UNL     1     -11.417  12.030  69.531  0.00  0.00    +0.012 C 
ATOM     25  C   UNL     1     -12.022  11.094  70.535  0.00  0.00    +0.026 C 
ATOM     26  C   UNL     1     -11.954  12.528  70.099  0.00  0.00    +0.012 C 
ATOM     27  C   UNL     1     -12.823  13.334  71.018  0.00  0.00    +0.075 C 
ATOM     28  C   UNL     1     -13.428  12.399  72.023  0.00  0.00    +0.009 C 
ATOM     29  C   UNL     1     -11.483  13.649  69.221  0.00  0.00    +0.001 C 
ATOM     30  C   UNL     1     -11.018  12.350  68.941  0.00  0.00    +0.001 C 
ATOM     31  C   UNL     1     -12.932  11.014  71.724  0.00  0.00    +0.005 C 
ATOM     32  C   UNL     1     -11.912  13.414  69.829  0.00  0.00    +0.170 C 
ATOM     33  O   UNL     1     -11.559  14.659  69.072  0.00  0.00    -0.292 OA
BRANCH  27  34
ATOM     34  C   UNL     1     -13.049  14.816  70.946  0.00  0.00    +0.133 C 
BRANCH  34  35
ATOM     35  S   UNL     1     -13.421  15.579  72.182  0.00  0.00    -0.107 S 
ATOM     36  O   UNL     1     -13.793  16.342  73.419  0.00  0.00    -0.291 OA
ATOM     37  O   UNL     1     -14.847  15.630  71.721  0.00  0.00    -0.371 OA
ATOM     38  O   UNL     1     -11.994  15.527  72.643  0.00  0.00    -0.371 OA
ENDBRANCH  34  35
ENDBRANCH  27  34
ENDBRANCH   4  23
TORSDOF 6
ENDMDL
