MODEL 1
REMARK VINA RESULT:      -7.3      0.000      0.000
REMARK  Name = 
REMARK  2 active torsions:
REMARK  status: ('A' for Active; 'I' for Inactive)
REMARK    1  A    between atoms: C_2  and  C_3
REMARK    2  A    between atoms: C_22  and  C_23
REMARK                            x       y       z     vdW  Elec       q    Type
REMARK                         _______ _______ _______ _____ _____    ______ ____
ROOT
ATOM      1  C   UNL     1      -7.714  17.728  68.213  0.00  0.00    +0.180 C 
ATOM      2  C   UNL     1      -9.114  17.984  67.954  0.00  0.00    +0.037 C 
ATOM      3  C   UNL     1      -9.966  17.063  68.968  0.00  0.00    +0.003 C 
ATOM      4  C   UNL     1     -10.968  16.330  67.814  0.00  0.00    +0.001 C 
ATOM      5  C   UNL     1      -9.765  15.495  67.011  0.00  0.00    +0.004 C 
ATOM      6  C   UNL     1      -9.479  16.688  65.965  0.00  0.00    +0.000 C 
ATOM      7  C   UNL     1     -10.742  14.749  65.859  0.00  0.00    +0.019 C 
ATOM      8  C   UNL     1     -12.021  14.421  66.757  0.00  0.00    -0.043 C 
ATOM      9  C   UNL     1     -12.755  13.624  65.967  0.00  0.00    +0.010 C 
ATOM     10  C   UNL     1     -12.132  12.944  64.813  0.00  0.00    +0.101 C 
ATOM     11  C   UNL     1     -10.800  12.358  65.180  0.00  0.00    +0.050 C 
ATOM     12  N   UNL     1     -12.803  12.537  63.804  0.00  0.00    -0.034 NA
ATOM     13  O   UNL     1     -12.300  11.488  63.056  0.00  0.00    -0.143 OA
ATOM     14  C   UNL     1     -11.813  13.987  68.148  0.00  0.00    +0.022 C 
ATOM     15  C   UNL     1     -10.087  13.283  66.162  0.00  0.00    +0.010 C 
ATOM     16  C   UNL     1     -11.269  15.151  68.868  0.00  0.00    +0.004 C 
ATOM     17  C   UNL     1      -8.898  15.848  69.104  0.00  0.00    +0.004 C 
ATOM     18  C   UNL     1      -9.656  17.995  66.616  0.00  0.00    +0.003 C 
ATOM     19  C   UNL     1      -7.591  16.424  68.886  0.00  0.00    +0.043 C 
ATOM     20  O   UNL     1      -7.075  18.676  69.031  0.00  0.00    -0.212 OA
ENDROOT
BRANCH   1  22
ATOM     21  C   UNL     1      -6.328  17.791  65.955  0.00  0.00    -0.012 C 
ATOM     22  C   UNL     1      -6.966  17.751  66.942  0.00  0.00    -0.049 C 
ENDBRANCH   1  22
BRANCH   2  23
ATOM     23  C   UNL     1      -9.418  19.353  68.575  0.00  0.00    +0.003 C 
ATOM     24  C   UNL     1      -9.827  20.359  67.539  0.00  0.00    +0.000 C 
ENDBRANCH   2  23
TORSDOF 2
ENDMDL
MODEL 2
REMARK VINA RESULT:      -6.5      4.085      7.578
REMARK  Name = 
REMARK  2 active torsions:
REMARK  status: ('A' for Active; 'I' for Inactive)
REMARK    1  A    between atoms: C_2  and  C_3
REMARK    2  A    between atoms: C_22  and  C_23
REMARK                            x       y       z     vdW  Elec       q    Type
REMARK                         _______ _______ _______ _____ _____    ______ ____
ROOT
ATOM      1  C   UNL     1      -9.766  16.580  67.394  0.00  0.00    +0.180 C 
ATOM      2  C   UNL     1      -9.548  17.952  66.992  0.00  0.00    +0.037 C 
ATOM      3  C   UNL     1      -8.157  17.998  66.177  0.00  0.00    +0.003 C 
ATOM      4  C   UNL     1      -7.422  19.243  67.062  0.00  0.00    +0.001 C 
ATOM      5  C   UNL     1      -7.314  18.418  68.510  0.00  0.00    +0.004 C 
ATOM      6  C   UNL     1      -8.749  18.928  69.037  0.00  0.00    +0.000 C 
ATOM      7  C   UNL     1      -6.576  19.638  69.406  0.00  0.00    +0.019 C 
ATOM      8  C   UNL     1      -5.589  20.231  68.300  0.00  0.00    -0.043 C 
ATOM      9  C   UNL     1      -4.803  21.060  69.002  0.00  0.00    +0.010 C 
ATOM     10  C   UNL     1      -4.710  20.930  70.471  0.00  0.00    +0.101 C 
ATOM     11  C   UNL     1      -4.580  19.493  70.884  0.00  0.00    +0.050 C 
ATOM     12  N   UNL     1      -4.352  21.893  71.230  0.00  0.00    -0.034 NA
ATOM     13  O   UNL     1      -3.782  21.594  72.455  0.00  0.00    -0.143 OA
ATOM     14  C   UNL     1      -4.929  19.299  67.372  0.00  0.00    +0.022 C 
ATOM     15  C   UNL     1      -5.426  18.618  69.962  0.00  0.00    +0.010 C 
ATOM     16  C   UNL     1      -5.991  18.745  66.516  0.00  0.00    +0.004 C 
ATOM     17  C   UNL     1      -7.425  16.760  66.929  0.00  0.00    +0.004 C 
ATOM     18  C   UNL     1      -9.693  19.052  67.916  0.00  0.00    +0.003 C 
ATOM     19  C   UNL     1      -8.475  15.873  67.376  0.00  0.00    +0.043 C 
ATOM     20  O   UNL     1     -10.646  15.851  66.574  0.00  0.00    -0.212 OA
ENDROOT
BRANCH   1  22
ATOM     21  C   UNL     1     -10.897  16.486  69.789  0.00  0.00    -0.012 C 
ATOM     22  C   UNL     1     -10.378  16.550  68.735  0.00  0.00    -0.049 C 
ENDBRANCH   1  22
BRANCH   2  23
ATOM     23  C   UNL     1     -10.509  18.212  65.826  0.00  0.00    +0.003 C 
ATOM     24  C   UNL     1     -10.814  19.673  65.666  0.00  0.00    +0.000 C 
ENDBRANCH   2  23
TORSDOF 2
ENDMDL
MODEL 3
REMARK VINA RESULT:      -6.2      3.829      6.835
REMARK  Name = 
REMARK  2 active torsions:
REMARK  status: ('A' for Active; 'I' for Inactive)
REMARK    1  A    between atoms: C_2  and  C_3
REMARK    2  A    between atoms: C_22  and  C_23
REMARK                            x       y       z     vdW  Elec       q    Type
REMARK                         _______ _______ _______ _____ _____    ______ ____
ROOT
ATOM      1  C   UNL     1      -9.097   8.352  67.134  0.00  0.00    +0.180 C 
ATOM      2  C   UNL     1      -8.515   9.515  67.768  0.00  0.00    +0.037 C 
ATOM      3  C   UNL     1      -9.617  10.109  68.786  0.00  0.00    +0.003 C 
ATOM      4  C   UNL     1      -9.600  11.707  68.223  0.00  0.00    +0.001 C 
ATOM      5  C   UNL     1     -10.209  11.387  66.701  0.00  0.00    +0.004 C 
ATOM      6  C   UNL     1      -8.754  11.169  66.042  0.00  0.00    +0.000 C 
ATOM      7  C   UNL     1     -10.209  12.969  66.124  0.00  0.00    +0.019 C 
ATOM      8  C   UNL     1     -10.660  13.743  67.446  0.00  0.00    -0.043 C 
ATOM      9  C   UNL     1     -10.903  14.987  67.008  0.00  0.00    +0.010 C 
ATOM     10  C   UNL     1     -11.124  15.236  65.568  0.00  0.00    +0.101 C 
ATOM     11  C   UNL     1     -12.033  14.204  64.968  0.00  0.00    +0.050 C 
ATOM     12  N   UNL     1     -10.938  16.380  65.028  0.00  0.00    -0.034 NA
ATOM     13  O   UNL     1     -11.637  16.687  63.875  0.00  0.00    -0.143 OA
ATOM     14  C   UNL     1     -11.675  13.123  68.314  0.00  0.00    +0.022 C 
ATOM     15  C   UNL     1     -11.754  12.845  65.606  0.00  0.00    +0.010 C 
ATOM     16  C   UNL     1     -11.043  11.929  68.902  0.00  0.00    +0.004 C 
ATOM     17  C   UNL     1     -10.939   9.627  67.977  0.00  0.00    +0.004 C 
ATOM     18  C   UNL     1      -7.841  10.542  67.009  0.00  0.00    +0.003 C 
ATOM     19  C   UNL     1     -10.562   8.440  67.244  0.00  0.00    +0.043 C 
ATOM     20  O   UNL     1      -8.715   7.117  67.689  0.00  0.00    -0.212 OA
ENDROOT
BRANCH   1  22
ATOM     21  C   UNL     1      -8.312   8.188  64.608  0.00  0.00    -0.012 C 
ATOM     22  C   UNL     1      -8.665   8.290  65.726  0.00  0.00    -0.049 C 
ENDBRANCH   1  22
BRANCH   2  23
ATOM     23  C   UNL     1      -7.511   8.982  68.797  0.00  0.00    +0.003 C 
ATOM     24  C   UNL     1      -7.883   9.374  70.197  0.00  0.00    +0.000 C 
ENDBRANCH   2  23
TORSDOF 2
ENDMDL
MODEL 4
REMARK VINA RESULT:      -6.2      2.051      3.251
REMARK  Name = 
REMARK  2 active torsions:
REMARK  status: ('A' for Active; 'I' for Inactive)
REMARK    1  A    between atoms: C_2  and  C_3
REMARK    2  A    between atoms: C_22  and  C_23
REMARK                            x       y       z     vdW  Elec       q    Type
REMARK                         _______ _______ _______ _____ _____    ______ ____
ROOT
ATOM      1  C   UNL     1     -10.100  15.664  68.956  0.00  0.00    +0.180 C 
ATOM      2  C   UNL     1     -10.258  16.008  67.560  0.00  0.00    +0.037 C 
ATOM      3  C   UNL     1     -11.720  15.503  67.103  0.00  0.00    +0.003 C 
ATOM      4  C   UNL     1     -11.233  14.614  65.745  0.00  0.00    +0.001 C 
ATOM      5  C   UNL     1     -10.359  13.455  66.570  0.00  0.00    +0.004 C 
ATOM      6  C   UNL     1      -8.976  14.279  66.492  0.00  0.00    +0.000 C 
ATOM      7  C   UNL     1      -9.871  12.551  65.236  0.00  0.00    +0.019 C 
ATOM      8  C   UNL     1     -11.196  12.633  64.350  0.00  0.00    -0.043 C 
ATOM      9  C   UNL     1     -10.967  11.748  63.369  0.00  0.00    +0.010 C 
ATOM     10  C   UNL     1      -9.925  10.713  63.533  0.00  0.00    +0.101 C 
ATOM     11  C   UNL     1      -9.983  10.090  64.897  0.00  0.00    +0.050 C 
ATOM     12  N   UNL     1      -9.363  10.134  62.541  0.00  0.00    -0.034 NA
ATOM     13  O   UNL     1      -8.833   8.870  62.727  0.00  0.00    -0.143 OA
ATOM     14  C   UNL     1     -12.501  12.566  65.027  0.00  0.00    +0.022 C 
ATOM     15  C   UNL     1     -10.355  11.152  65.928  0.00  0.00    +0.010 C 
ATOM     16  C   UNL     1     -12.625  13.806  65.812  0.00  0.00    +0.004 C 
ATOM     17  C   UNL     1     -11.844  14.249  68.127  0.00  0.00    +0.004 C 
ATOM     18  C   UNL     1      -9.235  15.725  66.581  0.00  0.00    +0.003 C 
ATOM     19  C   UNL     1     -11.045  14.583  69.284  0.00  0.00    +0.043 C 
ATOM     20  O   UNL     1     -10.343  16.713  69.861  0.00  0.00    -0.212 OA
ENDROOT
BRANCH   1  22
ATOM     21  C   UNL     1      -7.607  14.919  69.460  0.00  0.00    -0.012 C 
ATOM     22  C   UNL     1      -8.706  15.254  69.208  0.00  0.00    -0.049 C 
ENDBRANCH   1  22
BRANCH   2  23
ATOM     23  C   UNL     1     -10.512  17.520  67.521  0.00  0.00    +0.003 C 
ATOM     24  C   UNL     1      -9.525  18.232  66.643  0.00  0.00    +0.000 C 
ENDBRANCH   2  23
TORSDOF 2
ENDMDL
MODEL 5
REMARK VINA RESULT:      -6.2      3.338      6.727
REMARK  Name = 
REMARK  2 active torsions:
REMARK  status: ('A' for Active; 'I' for Inactive)
REMARK    1  A    between atoms: C_2  and  C_3
REMARK    2  A    between atoms: C_22  and  C_23
REMARK                            x       y       z     vdW  Elec       q    Type
REMARK                         _______ _______ _______ _____ _____    ______ ____
ROOT
ATOM      1  C   UNL     1     -10.500  15.321  67.028  0.00  0.00    +0.180 C 
ATOM      2  C   UNL     1     -10.391  16.147  68.211  0.00  0.00    +0.037 C 
ATOM      3  C   UNL     1     -10.657  17.672  67.759  0.00  0.00    +0.003 C 
ATOM      4  C   UNL     1      -9.259  18.351  68.435  0.00  0.00    +0.001 C 
ATOM      5  C   UNL     1      -8.162  17.554  67.461  0.00  0.00    +0.004 C 
ATOM      6  C   UNL     1      -8.007  16.304  68.466  0.00  0.00    +0.000 C 
ATOM      7  C   UNL     1      -6.760  18.223  68.111  0.00  0.00    +0.019 C 
ATOM      8  C   UNL     1      -7.260  19.718  68.360  0.00  0.00    -0.043 C 
ATOM      9  C   UNL     1      -6.131  20.374  68.667  0.00  0.00    +0.010 C 
ATOM     10  C   UNL     1      -4.818  19.795  68.316  0.00  0.00    +0.101 C 
ATOM     11  C   UNL     1      -4.823  19.235  66.924  0.00  0.00    +0.050 C 
ATOM     12  N   UNL     1      -3.738  20.113  68.921  0.00  0.00    -0.034 NA
ATOM     13  O   UNL     1      -2.538  19.978  68.245  0.00  0.00    -0.143 OA
ATOM     14  C   UNL     1      -8.151  20.338  67.367  0.00  0.00    +0.022 C 
ATOM     15  C   UNL     1      -6.182  18.606  66.631  0.00  0.00    +0.010 C 
ATOM     16  C   UNL     1      -9.429  19.610  67.444  0.00  0.00    +0.004 C 
ATOM     17  C   UNL     1     -10.102  17.546  66.239  0.00  0.00    +0.004 C 
ATOM     18  C   UNL     1      -9.286  16.020  69.133  0.00  0.00    +0.003 C 
ATOM     19  C   UNL     1     -10.301  16.171  65.842  0.00  0.00    +0.043 C 
ATOM     20  O   UNL     1     -11.736  14.671  66.866  0.00  0.00    -0.212 OA
ENDROOT
BRANCH   1  22
ATOM     21  C   UNL     1      -8.740  13.342  67.112  0.00  0.00    -0.012 C 
ATOM     22  C   UNL     1      -9.502  14.238  67.088  0.00  0.00    -0.049 C 
ENDBRANCH   1  22
BRANCH   2  23
ATOM     23  C   UNL     1     -11.677  15.914  69.013  0.00  0.00    +0.003 C 
ATOM     24  C   UNL     1     -11.433  15.976  70.493  0.00  0.00    +0.000 C 
ENDBRANCH   2  23
TORSDOF 2
ENDMDL
MODEL 6
REMARK VINA RESULT:      -6.1      7.642     10.238
REMARK  Name = 
REMARK  2 active torsions:
REMARK  status: ('A' for Active; 'I' for Inactive)
REMARK    1  A    between atoms: C_2  and  C_3
REMARK    2  A    between atoms: C_22  and  C_23
REMARK                            x       y       z     vdW  Elec       q    Type
REMARK                         _______ _______ _______ _____ _____    ______ ____
ROOT
ATOM      1  C   UNL     1      -9.490   5.548  71.441  0.00  0.00    +0.180 C 
ATOM      2  C   UNL     1     -10.084   6.282  72.537  0.00  0.00    +0.037 C 
ATOM      3  C   UNL     1     -11.680   6.291  72.301  0.00  0.00    +0.003 C 
ATOM      4  C   UNL     1     -11.915   7.964  72.433  0.00  0.00    +0.001 C 
ATOM      5  C   UNL     1     -11.042   8.394  71.076  0.00  0.00    +0.004 C 
ATOM      6  C   UNL     1      -9.654   8.553  71.881  0.00  0.00    +0.000 C 
ATOM      7  C   UNL     1     -11.270  10.059  71.183  0.00  0.00    +0.019 C 
ATOM      8  C   UNL     1     -12.786  10.096  71.682  0.00  0.00    -0.043 C 
ATOM      9  C   UNL     1     -13.114  11.392  71.574  0.00  0.00    +0.010 C 
ATOM     10  C   UNL     1     -12.310  12.293  70.722  0.00  0.00    +0.101 C 
ATOM     11  C   UNL     1     -11.979  11.650  69.407  0.00  0.00    +0.050 C 
ATOM     12  N   UNL     1     -12.280  13.560  70.890  0.00  0.00    -0.034 NA
ATOM     13  O   UNL     1     -11.977  14.363  69.805  0.00  0.00    -0.143 OA
ATOM     14  C   UNL     1     -13.733   9.113  71.133  0.00  0.00    +0.022 C 
ATOM     15  C   UNL     1     -11.727  10.159  69.617  0.00  0.00    +0.010 C 
ATOM     16  C   UNL     1     -13.311   7.799  71.649  0.00  0.00    +0.004 C 
ATOM     17  C   UNL     1     -11.658   6.221  70.680  0.00  0.00    +0.004 C 
ATOM     18  C   UNL     1      -9.574   7.563  72.966  0.00  0.00    +0.003 C 
ATOM     19  C   UNL     1     -10.438   5.537  70.315  0.00  0.00    +0.043 C 
ATOM     20  O   UNL     1      -9.171   4.208  71.724  0.00  0.00    -0.212 OA
ENDROOT
BRANCH   1  22
ATOM     21  C   UNL     1      -7.177   6.631  70.738  0.00  0.00    -0.012 C 
ATOM     22  C   UNL     1      -8.211   6.176  71.062  0.00  0.00    -0.049 C 
ENDBRANCH   1  22
BRANCH   2  23
ATOM     23  C   UNL     1     -10.034   5.348  73.752  0.00  0.00    +0.003 C 
ATOM     24  C   UNL     1      -9.808   6.102  75.030  0.00  0.00    +0.000 C 
ENDBRANCH   2  23
TORSDOF 2
ENDMDL
MODEL 7
REMARK VINA RESULT:      -6.0      2.162      3.549
REMARK  Name = 
REMARK  2 active torsions:
REMARK  status: ('A' for Active; 'I' for Inactive)
REMARK    1  A    between atoms: C_2  and  C_3
REMARK    2  A    between atoms: C_22  and  C_23
REMARK                            x       y       z     vdW  Elec       q    Type
REMARK                         _______ _______ _______ _____ _____    ______ ____
ROOT
ATOM      1  C   UNL     1      -5.428  19.600  68.347  0.00  0.00    +0.180 C 
ATOM      2  C   UNL     1      -6.116  19.776  67.087  0.00  0.00    +0.037 C 
ATOM      3  C   UNL     1      -7.663  20.087  67.425  0.00  0.00    +0.003 C 
ATOM      4  C   UNL     1      -8.350  18.896  66.433  0.00  0.00    +0.001 C 
ATOM      5  C   UNL     1      -7.744  17.578  67.259  0.00  0.00    +0.004 C 
ATOM      6  C   UNL     1      -6.399  17.499  66.375  0.00  0.00    +0.000 C 
ATOM      7  C   UNL     1      -8.424  16.377  66.293  0.00  0.00    +0.019 C 
ATOM      8  C   UNL     1      -9.844  17.041  65.992  0.00  0.00    -0.043 C 
ATOM      9  C   UNL     1     -10.533  16.046  65.413  0.00  0.00    +0.010 C 
ATOM     10  C   UNL     1     -10.086  14.646  65.568  0.00  0.00    +0.101 C 
ATOM     11  C   UNL     1      -9.692  14.353  66.986  0.00  0.00    +0.050 C 
ATOM     12  N   UNL     1     -10.402  13.723  64.742  0.00  0.00    -0.034 NA
ATOM     13  O   UNL     1     -10.425  12.415  65.191  0.00  0.00    -0.143 OA
ATOM     14  C   UNL     1     -10.515  17.789  67.067  0.00  0.00    +0.022 C 
ATOM     15  C   UNL     1      -9.013  15.579  67.592  0.00  0.00    +0.010 C 
ATOM     16  C   UNL     1      -9.700  18.992  67.305  0.00  0.00    +0.004 C 
ATOM     17  C   UNL     1      -7.750  19.259  68.818  0.00  0.00    +0.004 C 
ATOM     18  C   UNL     1      -5.956  18.848  65.992  0.00  0.00    +0.003 C 
ATOM     19  C   UNL     1      -6.420  19.264  69.383  0.00  0.00    +0.043 C 
ATOM     20  O   UNL     1      -4.721  20.727  68.804  0.00  0.00    -0.212 OA
ENDROOT
BRANCH   1  22
ATOM     21  C   UNL     1      -3.576  17.715  68.142  0.00  0.00    -0.012 C 
ATOM     22  C   UNL     1      -4.412  18.539  68.211  0.00  0.00    -0.049 C 
ENDBRANCH   1  22
BRANCH   2  23
ATOM     23  C   UNL     1      -5.708  21.160  66.569  0.00  0.00    +0.003 C 
ATOM     24  C   UNL     1      -4.845  21.068  65.345  0.00  0.00    +0.000 C 
ENDBRANCH   2  23
TORSDOF 2
ENDMDL
MODEL 8
REMARK VINA RESULT:      -6.0      4.594      7.943
REMARK  Name = 
REMARK  2 active torsions:
REMARK  status: ('A' for Active; 'I' for Inactive)
REMARK    1  A    between atoms: C_2  and  C_3
REMARK    2  A    between atoms: C_22  and  C_23
REMARK                            x       y       z     vdW  Elec       q    Type
REMARK                         _______ _______ _______ _____ _____    ______ ____
ROOT
ATOM      1  C   UNL     1      -8.642   8.231  69.145  0.00  0.00    +0.180 C 
ATOM      2  C   UNL     1      -9.425   7.789  68.012  0.00  0.00    +0.037 C 
ATOM      3  C   UNL     1      -8.510   7.970  66.696  0.00  0.00    +0.003 C 
ATOM      4  C   UNL     1      -9.617   8.865  65.777  0.00  0.00    +0.001 C 
ATOM      5  C   UNL     1      -9.641  10.216  66.758  0.00  0.00    +0.004 C 
ATOM      6  C   UNL     1     -10.865   9.680  67.659  0.00  0.00    +0.000 C 
ATOM      7  C   UNL     1     -10.733  11.128  65.856  0.00  0.00    +0.019 C 
ATOM      8  C   UNL     1     -10.262  10.738  64.381  0.00  0.00    -0.043 C 
ATOM      9  C   UNL     1     -10.936  11.598  63.605  0.00  0.00    +0.010 C 
ATOM     10  C   UNL     1     -11.515  12.827  64.188  0.00  0.00    +0.101 C 
ATOM     11  C   UNL     1     -10.549  13.496  65.121  0.00  0.00    +0.050 C 
ATOM     12  N   UNL     1     -12.493  13.453  63.652  0.00  0.00    -0.034 NA
ATOM     13  O   UNL     1     -12.632  14.805  63.908  0.00  0.00    -0.143 OA
ATOM     14  C   UNL     1      -8.822  10.580  64.120  0.00  0.00    +0.022 C 
ATOM     15  C   UNL     1      -9.755  12.437  65.880  0.00  0.00    +0.010 C 
ATOM     16  C   UNL     1      -8.395   9.383  64.865  0.00  0.00    +0.004 C 
ATOM     17  C   UNL     1      -7.625   9.226  67.220  0.00  0.00    +0.004 C 
ATOM     18  C   UNL     1     -10.789   8.219  67.810  0.00  0.00    +0.003 C 
ATOM     19  C   UNL     1      -7.572   9.118  68.660  0.00  0.00    +0.043 C 
ATOM     20  O   UNL     1      -8.025   7.204  69.881  0.00  0.00    -0.212 OA
ENDROOT
BRANCH   1  22
ATOM     21  C   UNL     1     -10.206   9.433  70.915  0.00  0.00    -0.012 C 
ATOM     22  C   UNL     1      -9.517   8.922  70.110  0.00  0.00    -0.049 C 
ENDBRANCH   1  22
BRANCH   2  23
ATOM     23  C   UNL     1      -9.440   6.257  68.076  0.00  0.00    +0.003 C 
ATOM     24  C   UNL     1     -10.620   5.677  67.354  0.00  0.00    +0.000 C 
ENDBRANCH   2  23
TORSDOF 2
ENDMDL
MODEL 9
REMARK VINA RESULT:      -5.9      6.680      9.200
REMARK  Name = 
REMARK  2 active torsions:
REMARK  status: ('A' for Active; 'I' for Inactive)
REMARK    1  A    between atoms: C_2  and  C_3
REMARK    2  A    between atoms: C_22  and  C_23
REMARK                            x       y       z     vdW  Elec       q    Type
REMARK                         _______ _______ _______ _____ _____    ______ ____
ROOT
ATOM      1  C   UNL     1      -9.621   6.108  71.013  0.00  0.00    +0.180 C 
ATOM      2  C   UNL     1      -9.745   7.220  71.931  0.00  0.00    +0.037 C 
ATOM      3  C   UNL     1     -11.319   7.530  72.099  0.00  0.00    +0.003 C 
ATOM      4  C   UNL     1     -11.257   9.187  71.750  0.00  0.00    +0.001 C 
ATOM      5  C   UNL     1     -10.778   9.035  70.157  0.00  0.00    +0.004 C 
ATOM      6  C   UNL     1      -9.205   9.078  70.507  0.00  0.00    +0.000 C 
ATOM      7  C   UNL     1     -10.718  10.677  69.785  0.00  0.00    +0.019 C 
ATOM      8  C   UNL     1     -11.992  11.189  70.600  0.00  0.00    -0.043 C 
ATOM      9  C   UNL     1     -12.144  12.451  70.172  0.00  0.00    +0.010 C 
ATOM     10  C   UNL     1     -11.510  12.888  68.910  0.00  0.00    +0.101 C 
ATOM     11  C   UNL     1     -11.687  11.865  67.827  0.00  0.00    +0.050 C 
ATOM     12  N   UNL     1     -11.247  14.113  68.657  0.00  0.00    -0.034 NA
ATOM     13  O   UNL     1     -11.170  14.513  67.335  0.00  0.00    -0.143 OA
ATOM     14  C   UNL     1     -13.193  10.339  70.637  0.00  0.00    +0.022 C 
ATOM     15  C   UNL     1     -11.604  10.465  68.428  0.00  0.00    +0.010 C 
ATOM     16  C   UNL     1     -12.832   9.147  71.422  0.00  0.00    +0.004 C 
ATOM     17  C   UNL     1     -11.795   7.035  70.629  0.00  0.00    +0.004 C 
ATOM     18  C   UNL     1      -8.948   8.416  71.795  0.00  0.00    +0.003 C 
ATOM     19  C   UNL     1     -10.855   6.019  70.213  0.00  0.00    +0.043 C 
ATOM     20  O   UNL     1      -9.430   4.853  71.617  0.00  0.00    -0.212 OA
ENDROOT
BRANCH   1  22
ATOM     21  C   UNL     1      -7.479   6.413  69.482  0.00  0.00    -0.012 C 
ATOM     22  C   UNL     1      -8.438   6.306  70.156  0.00  0.00    -0.049 C 
ENDBRANCH   1  22
BRANCH   2  23
ATOM     23  C   UNL     1      -9.469   6.650  73.327  0.00  0.00    +0.003 C 
ATOM     24  C   UNL     1      -8.554   7.535  74.123  0.00  0.00    +0.000 C 
ENDBRANCH   2  23
TORSDOF 2
ENDMDL
