MODEL 1
REMARK VINA RESULT:      -7.0      0.000      0.000
REMARK  Name = 
REMARK  1 active torsions:
REMARK  status: ('A' for Active; 'I' for Inactive)
REMARK    1  A    between atoms: O_2  and  C_3
REMARK                            x       y       z     vdW  Elec       q    Type
REMARK                         _______ _______ _______ _____ _____    ______ ____
ROOT
ATOM      1  C   UNL     1     -11.792  11.923  69.796  0.00  0.00    +0.172 A 
ATOM      2  C   UNL     1     -11.594  13.058  69.011  0.00  0.00    +0.168 A 
ATOM      3  O   UNL     1     -11.202  14.336  69.223  0.00  0.00    -0.474 OA
ATOM      4  C   UNL     1     -11.445  15.140  67.939  0.00  0.00    +0.200 C 
ATOM      5  C   UNL     1     -11.431  13.892  66.912  0.00  0.00    +0.063 C 
ATOM      6  C   UNL     1     -10.212  14.141  65.917  0.00  0.00    +0.022 C 
ATOM      7  C   UNL     1     -10.291  12.729  64.970  0.00  0.00    +0.062 C 
ATOM      8  N   UNL     1     -11.388  13.333  64.029  0.00  0.00    -0.272 NA
ATOM      9  C   UNL     1     -12.188  14.266  64.652  0.00  0.00    +0.073 C 
ATOM     10  C   UNL     1     -12.092  12.240  63.437  0.00  0.00    +0.090 C 
ATOM     11  C   UNL     1     -11.382  11.806  65.727  0.00  0.00    +0.042 C 
ATOM     12  C   UNL     1     -10.974  11.602  67.126  0.00  0.00    -0.022 A 
ATOM     13  C   UNL     1     -11.278  10.492  67.897  0.00  0.00    -0.001 A 
ATOM     14  C   UNL     1      -9.077  13.482  66.881  0.00  0.00    +0.005 C 
ATOM     15  C   UNL     1      -9.102  14.239  68.170  0.00  0.00    +0.037 C 
ATOM     16  C   UNL     1     -12.634  14.075  66.055  0.00  0.00    +0.025 C 
ATOM     17  C   UNL     1      -9.806  15.644  67.719  0.00  0.00    +0.192 C 
ATOM     18  O   UNL     1      -9.733  16.215  69.112  0.00  0.00    -0.219 OA
ATOM     19  C   UNL     1     -11.285  12.786  67.734  0.00  0.00    +0.014 A 
ATOM     20  C   UNL     1     -11.634  10.655  69.239  0.00  0.00    +0.040 A 
ENDROOT
BRANCH   1  22
ATOM     21  C   UNL     1     -13.096  11.114  71.711  0.00  0.00    +0.253 C 
ATOM     22  O   UNL     1     -12.578  12.155  70.930  0.00  0.00    -0.468 OA
ENDBRANCH   1  22
TORSDOF 1
ENDMDL
MODEL 2
REMARK VINA RESULT:      -6.8      1.721      2.324
REMARK  Name = 
REMARK  1 active torsions:
REMARK  status: ('A' for Active; 'I' for Inactive)
REMARK    1  A    between atoms: O_2  and  C_3
REMARK                            x       y       z     vdW  Elec       q    Type
REMARK                         _______ _______ _______ _____ _____    ______ ____
ROOT
ATOM      1  C   UNL     1     -12.497  14.860  70.511  0.00  0.00    +0.172 A 
ATOM      2  C   UNL     1     -11.818  15.389  69.415  0.00  0.00    +0.168 A 
ATOM      3  O   UNL     1     -11.208  16.559  69.116  0.00  0.00    -0.474 OA
ATOM      4  C   UNL     1     -10.877  16.568  67.617  0.00  0.00    +0.200 C 
ATOM      5  C   UNL     1     -10.872  14.966  67.401  0.00  0.00    +0.063 C 
ATOM      6  C   UNL     1      -9.399  14.579  66.935  0.00  0.00    +0.022 C 
ATOM      7  C   UNL     1      -9.542  12.886  66.827  0.00  0.00    +0.062 C 
ATOM      8  N   UNL     1     -10.150  12.956  65.385  0.00  0.00    -0.272 NA
ATOM      9  C   UNL     1     -10.845  14.121  65.141  0.00  0.00    +0.073 C 
ATOM     10  C   UNL     1     -10.898  11.757  65.178  0.00  0.00    +0.090 C 
ATOM     11  C   UNL     1     -10.992  12.571  67.473  0.00  0.00    +0.042 C 
ATOM     12  C   UNL     1     -11.058  13.121  68.836  0.00  0.00    -0.022 A 
ATOM     13  C   UNL     1     -11.824  12.611  69.870  0.00  0.00    -0.001 A 
ATOM     14  C   UNL     1      -8.776  14.472  68.436  0.00  0.00    +0.005 C 
ATOM     15  C   UNL     1      -8.983  15.800  69.093  0.00  0.00    +0.037 C 
ATOM     16  C   UNL     1     -11.702  14.732  66.188  0.00  0.00    +0.025 C 
ATOM     17  C   UNL     1      -9.172  16.785  67.801  0.00  0.00    +0.192 C 
ATOM     18  O   UNL     1      -9.362  18.005  68.667  0.00  0.00    -0.219 OA
ATOM     19  C   UNL     1     -11.235  14.462  68.640  0.00  0.00    +0.014 A 
ATOM     20  C   UNL     1     -12.496  13.483  70.733  0.00  0.00    +0.040 A 
ENDROOT
BRANCH   1  22
ATOM     21  C   UNL     1     -14.589  15.221  71.742  0.00  0.00    +0.253 C 
ATOM     22  O   UNL     1     -13.492  15.703  71.017  0.00  0.00    -0.468 OA
ENDBRANCH   1  22
TORSDOF 1
ENDMDL
MODEL 3
REMARK VINA RESULT:      -6.6      2.386      4.730
REMARK  Name = 
REMARK  1 active torsions:
REMARK  status: ('A' for Active; 'I' for Inactive)
REMARK    1  A    between atoms: O_2  and  C_3
REMARK                            x       y       z     vdW  Elec       q    Type
REMARK                         _______ _______ _______ _____ _____    ______ ____
ROOT
ATOM      1  C   UNL     1      -9.387  15.855  66.377  0.00  0.00    +0.172 A 
ATOM      2  C   UNL     1     -10.396  14.910  66.201  0.00  0.00    +0.168 A 
ATOM      3  O   UNL     1     -11.446  14.746  65.363  0.00  0.00    -0.474 OA
ATOM      4  C   UNL     1     -12.315  13.596  65.890  0.00  0.00    +0.200 C 
ATOM      5  C   UNL     1     -11.169  12.855  66.755  0.00  0.00    +0.063 C 
ATOM      6  C   UNL     1     -10.993  11.404  66.120  0.00  0.00    +0.022 C 
ATOM      7  C   UNL     1      -9.725  10.797  67.079  0.00  0.00    +0.062 C 
ATOM      8  N   UNL     1     -10.702  10.352  68.220  0.00  0.00    -0.272 NA
ATOM      9  C   UNL     1     -11.843  11.122  68.292  0.00  0.00    +0.073 C 
ATOM     10  C   UNL     1      -9.945  10.288  69.430  0.00  0.00    +0.090 C 
ATOM     11  C   UNL     1      -9.232  12.077  67.937  0.00  0.00    +0.042 C 
ATOM     12  C   UNL     1      -8.861  13.171  67.026  0.00  0.00    -0.022 A 
ATOM     13  C   UNL     1      -7.914  14.147  67.287  0.00  0.00    -0.001 A 
ATOM     14  C   UNL     1      -9.951  11.860  64.955  0.00  0.00    +0.005 C 
ATOM     15  C   UNL     1     -10.635  12.910  64.139  0.00  0.00    +0.037 C 
ATOM     16  C   UNL     1     -11.789  12.590  68.082  0.00  0.00    +0.025 C 
ATOM     17  C   UNL     1     -12.210  12.615  64.470  0.00  0.00    +0.192 C 
ATOM     18  O   UNL     1     -12.683  13.741  63.585  0.00  0.00    -0.219 OA
ATOM     19  C   UNL     1     -10.064  13.679  66.619  0.00  0.00    +0.014 A 
ATOM     20  C   UNL     1      -8.159  15.472  66.915  0.00  0.00    +0.040 A 
ENDROOT
BRANCH   1  22
ATOM     21  C   UNL     1     -10.436  17.716  67.585  0.00  0.00    +0.253 C 
ATOM     22  O   UNL     1      -9.854  17.173  66.433  0.00  0.00    -0.468 OA
ENDBRANCH   1  22
TORSDOF 1
ENDMDL
MODEL 4
REMARK VINA RESULT:      -6.4      2.363      4.005
REMARK  Name = 
REMARK  1 active torsions:
REMARK  status: ('A' for Active; 'I' for Inactive)
REMARK    1  A    between atoms: O_2  and  C_3
REMARK                            x       y       z     vdW  Elec       q    Type
REMARK                         _______ _______ _______ _____ _____    ______ ____
ROOT
ATOM      1  C   UNL     1     -11.313  10.455  68.190  0.00  0.00    +0.172 A 
ATOM      2  C   UNL     1     -10.867  11.261  67.143  0.00  0.00    +0.168 A 
ATOM      3  O   UNL     1     -10.780  11.155  65.797  0.00  0.00    -0.474 OA
ATOM      4  C   UNL     1      -9.946  12.330  65.268  0.00  0.00    +0.200 C 
ATOM      5  C   UNL     1     -10.188  13.329  66.516  0.00  0.00    +0.063 C 
ATOM      6  C   UNL     1     -10.940  14.605  65.932  0.00  0.00    +0.022 C 
ATOM      7  C   UNL     1     -11.181  15.503  67.358  0.00  0.00    +0.062 C 
ATOM      8  N   UNL     1      -9.744  16.125  67.296  0.00  0.00    -0.272 NA
ATOM      9  C   UNL     1      -8.824  15.313  66.668  0.00  0.00    +0.073 C 
ATOM     10  C   UNL     1      -9.391  16.517  68.623  0.00  0.00    +0.090 C 
ATOM     11  C   UNL     1     -10.742  14.491  68.540  0.00  0.00    +0.042 C 
ATOM     12  C   UNL     1     -11.521  13.247  68.443  0.00  0.00    -0.022 A 
ATOM     13  C   UNL     1     -11.860  12.426  69.506  0.00  0.00    -0.001 A 
ATOM     14  C   UNL     1     -12.437  13.971  66.028  0.00  0.00    +0.005 C 
ATOM     15  C   UNL     1     -12.437  12.717  65.213  0.00  0.00    +0.037 C 
ATOM     16  C   UNL     1      -8.838  13.843  66.874  0.00  0.00    +0.025 C 
ATOM     17  C   UNL     1     -11.163  12.967  64.218  0.00  0.00    +0.192 C 
ATOM     18  O   UNL     1     -11.346  11.638  63.529  0.00  0.00    -0.219 OA
ATOM     19  C   UNL     1     -10.938  12.575  67.404  0.00  0.00    +0.014 A 
ATOM     20  C   UNL     1     -11.804  11.037  69.357  0.00  0.00    +0.040 A 
ENDROOT
BRANCH   1  22
ATOM     21  C   UNL     1     -10.109   8.592  69.238  0.00  0.00    +0.253 C 
ATOM     22  O   UNL     1     -10.797   9.155  68.156  0.00  0.00    -0.468 OA
ENDBRANCH   1  22
TORSDOF 1
ENDMDL
MODEL 5
REMARK VINA RESULT:      -6.3      5.501      8.359
REMARK  Name = 
REMARK  1 active torsions:
REMARK  status: ('A' for Active; 'I' for Inactive)
REMARK    1  A    between atoms: O_2  and  C_3
REMARK                            x       y       z     vdW  Elec       q    Type
REMARK                         _______ _______ _______ _____ _____    ______ ____
ROOT
ATOM      1  C   UNL     1      -9.555  18.211  66.426  0.00  0.00    +0.172 A 
ATOM      2  C   UNL     1      -8.168  18.257  66.296  0.00  0.00    +0.168 A 
ATOM      3  O   UNL     1      -7.281  18.239  65.274  0.00  0.00    -0.474 OA
ATOM      4  C   UNL     1      -5.871  18.063  65.855  0.00  0.00    +0.200 C 
ATOM      5  C   UNL     1      -6.190  18.626  67.336  0.00  0.00    +0.063 C 
ATOM      6  C   UNL     1      -5.273  19.914  67.535  0.00  0.00    +0.022 C 
ATOM      7  C   UNL     1      -5.777  20.417  69.081  0.00  0.00    +0.062 C 
ATOM      8  N   UNL     1      -4.807  19.420  69.802  0.00  0.00    -0.272 NA
ATOM      9  C   UNL     1      -4.541  18.287  69.064  0.00  0.00    +0.073 C 
ATOM     10  C   UNL     1      -5.337  19.176  71.106  0.00  0.00    +0.090 C 
ATOM     11  C   UNL     1      -7.055  19.480  69.405  0.00  0.00    +0.042 C 
ATOM     12  C   UNL     1      -8.059  19.626  68.340  0.00  0.00    -0.022 A 
ATOM     13  C   UNL     1      -9.427  19.476  68.500  0.00  0.00    -0.001 A 
ATOM     14  C   UNL     1      -6.298  20.957  66.816  0.00  0.00    +0.005 C 
ATOM     15  C   UNL     1      -6.525  20.460  65.424  0.00  0.00    +0.037 C 
ATOM     16  C   UNL     1      -5.606  17.626  68.270  0.00  0.00    +0.025 C 
ATOM     17  C   UNL     1      -5.211  19.515  65.188  0.00  0.00    +0.192 C 
ATOM     18  O   UNL     1      -5.640  19.139  63.792  0.00  0.00    -0.219 OA
ATOM     19  C   UNL     1      -7.551  18.888  67.306  0.00  0.00    +0.014 A 
ATOM     20  C   UNL     1     -10.173  18.817  67.519  0.00  0.00    +0.040 A 
ENDROOT
BRANCH   1  22
ATOM     21  C   UNL     1      -9.802  15.830  65.888  0.00  0.00    +0.253 C 
ATOM     22  O   UNL     1     -10.152  17.173  65.703  0.00  0.00    -0.468 OA
ENDBRANCH   1  22
TORSDOF 1
ENDMDL
MODEL 6
REMARK VINA RESULT:      -6.2      2.177      4.193
REMARK  Name = 
REMARK  1 active torsions:
REMARK  status: ('A' for Active; 'I' for Inactive)
REMARK    1  A    between atoms: O_2  and  C_3
REMARK                            x       y       z     vdW  Elec       q    Type
REMARK                         _______ _______ _______ _____ _____    ______ ____
ROOT
ATOM      1  C   UNL     1     -12.270  14.101  70.303  0.00  0.00    +0.172 A 
ATOM      2  C   UNL     1     -11.534  13.617  69.222  0.00  0.00    +0.168 A 
ATOM      3  O   UNL     1     -11.710  12.680  68.262  0.00  0.00    -0.474 OA
ATOM      4  C   UNL     1     -10.378  12.481  67.525  0.00  0.00    +0.200 C 
ATOM      5  C   UNL     1      -9.730  13.917  67.886  0.00  0.00    +0.063 C 
ATOM      6  C   UNL     1      -9.497  14.668  66.501  0.00  0.00    +0.022 C 
ATOM      7  C   UNL     1      -8.894  16.160  67.054  0.00  0.00    +0.062 C 
ATOM      8  N   UNL     1      -7.433  15.607  67.180  0.00  0.00    -0.272 NA
ATOM      9  C   UNL     1      -7.383  14.254  67.439  0.00  0.00    +0.073 C 
ATOM     10  C   UNL     1      -6.747  16.424  68.129  0.00  0.00    +0.090 C 
ATOM     11  C   UNL     1      -9.103  16.101  68.657  0.00  0.00    +0.042 C 
ATOM     12  C   UNL     1     -10.520  15.845  68.962  0.00  0.00    -0.022 A 
ATOM     13  C   UNL     1     -11.185  16.269  70.101  0.00  0.00    -0.001 A 
ATOM     14  C   UNL     1     -11.005  15.272  66.387  0.00  0.00    +0.005 C 
ATOM     15  C   UNL     1     -11.947  14.111  66.412  0.00  0.00    +0.037 C 
ATOM     16  C   UNL     1      -8.353  13.617  68.364  0.00  0.00    +0.025 C 
ATOM     17  C   UNL     1     -10.972  12.881  65.951  0.00  0.00    +0.192 C 
ATOM     18  O   UNL     1     -12.083  11.866  66.049  0.00  0.00    -0.219 OA
ATOM     19  C   UNL     1     -10.673  14.510  68.711  0.00  0.00    +0.014 A 
ATOM     20  C   UNL     1     -12.094  15.415  70.733  0.00  0.00    +0.040 A 
ENDROOT
BRANCH   1  22
ATOM     21  C   UNL     1     -13.625  13.366  72.212  0.00  0.00    +0.253 C 
ATOM     22  O   UNL     1     -12.768  13.095  71.138  0.00  0.00    -0.468 OA
ENDBRANCH   1  22
TORSDOF 1
ENDMDL
MODEL 7
REMARK VINA RESULT:      -5.9      5.026      7.126
REMARK  Name = 
REMARK  1 active torsions:
REMARK  status: ('A' for Active; 'I' for Inactive)
REMARK    1  A    between atoms: O_2  and  C_3
REMARK                            x       y       z     vdW  Elec       q    Type
REMARK                         _______ _______ _______ _____ _____    ______ ____
ROOT
ATOM      1  C   UNL     1      -5.291  18.439  69.883  0.00  0.00    +0.172 A 
ATOM      2  C   UNL     1      -6.164  18.989  68.946  0.00  0.00    +0.168 A 
ATOM      3  O   UNL     1      -6.114  19.984  68.030  0.00  0.00    -0.474 OA
ATOM      4  C   UNL     1      -7.533  20.229  67.498  0.00  0.00    +0.200 C 
ATOM      5  C   UNL     1      -8.138  18.775  67.858  0.00  0.00    +0.063 C 
ATOM      6  C   UNL     1      -8.568  18.111  66.474  0.00  0.00    +0.022 C 
ATOM      7  C   UNL     1      -9.103  16.588  67.014  0.00  0.00    +0.062 C 
ATOM      8  N   UNL     1     -10.527  17.134  67.374  0.00  0.00    -0.272 NA
ATOM      9  C   UNL     1     -10.528  18.469  67.719  0.00  0.00    +0.073 C 
ATOM     10  C   UNL     1     -11.083  16.260  68.357  0.00  0.00    +0.090 C 
ATOM     11  C   UNL     1      -8.673  16.548  68.573  0.00  0.00    +0.042 C 
ATOM     12  C   UNL     1      -7.226  16.783  68.694  0.00  0.00    -0.022 A 
ATOM     13  C   UNL     1      -6.414  16.289  69.702  0.00  0.00    -0.001 A 
ATOM     14  C   UNL     1      -7.095  17.513  66.116  0.00  0.00    +0.005 C 
ATOM     15  C   UNL     1      -6.148  18.670  66.081  0.00  0.00    +0.037 C 
ATOM     16  C   UNL     1      -9.433  19.046  68.539  0.00  0.00    +0.025 C 
ATOM     17  C   UNL     1      -7.165  19.927  65.836  0.00  0.00    +0.192 C 
ATOM     18  O   UNL     1      -6.042  20.933  65.840  0.00  0.00    -0.219 OA
ATOM     19  C   UNL     1      -7.096  18.131  68.505  0.00  0.00    +0.014 A 
ATOM     20  C   UNL     1      -5.419  17.101  70.253  0.00  0.00    +0.040 A 
ENDROOT
BRANCH   1  22
ATOM     21  C   UNL     1      -5.358  20.067  71.717  0.00  0.00    +0.253 C 
ATOM     22  O   UNL     1      -4.672  19.391  70.701  0.00  0.00    -0.468 OA
ENDBRANCH   1  22
TORSDOF 1
ENDMDL
MODEL 8
REMARK VINA RESULT:      -5.9      4.698      7.142
REMARK  Name = 
REMARK  1 active torsions:
REMARK  status: ('A' for Active; 'I' for Inactive)
REMARK    1  A    between atoms: O_2  and  C_3
REMARK                            x       y       z     vdW  Elec       q    Type
REMARK                         _______ _______ _______ _____ _____    ______ ____
ROOT
ATOM      1  C   UNL     1      -8.607  15.727  66.641  0.00  0.00    +0.172 A 
ATOM      2  C   UNL     1      -8.755  17.109  66.534  0.00  0.00    +0.168 A 
ATOM      3  O   UNL     1      -9.787  17.984  66.543  0.00  0.00    -0.474 OA
ATOM      4  C   UNL     1      -9.260  19.364  66.121  0.00  0.00    +0.200 C 
ATOM      5  C   UNL     1      -7.713  19.120  66.520  0.00  0.00    +0.063 C 
ATOM      6  C   UNL     1      -7.365  20.189  67.649  0.00  0.00    +0.022 C 
ATOM      7  C   UNL     1      -5.757  19.755  68.002  0.00  0.00    +0.062 C 
ATOM      8  N   UNL     1      -5.190  20.597  66.809  0.00  0.00    -0.272 NA
ATOM      9  C   UNL     1      -6.074  20.719  65.758  0.00  0.00    +0.073 C 
ATOM     10  C   UNL     1      -3.920  20.044  66.462  0.00  0.00    +0.090 C 
ATOM     11  C   UNL     1      -5.535  18.372  67.193  0.00  0.00    +0.042 C 
ATOM     12  C   UNL     1      -6.553  17.391  67.599  0.00  0.00    -0.022 A 
ATOM     13  C   UNL     1      -6.388  16.015  67.597  0.00  0.00    -0.001 A 
ATOM     14  C   UNL     1      -7.923  19.299  68.894  0.00  0.00    +0.005 C 
ATOM     15  C   UNL     1      -9.364  19.009  68.616  0.00  0.00    +0.037 C 
ATOM     16  C   UNL     1      -6.928  19.578  65.342  0.00  0.00    +0.025 C 
ATOM     17  C   UNL     1      -9.744  20.196  67.557  0.00  0.00    +0.192 C 
ATOM     18  O   UNL     1     -11.169  19.720  67.423  0.00  0.00    -0.219 OA
ATOM     19  C   UNL     1      -7.683  17.802  66.947  0.00  0.00    +0.014 A 
ATOM     20  C   UNL     1      -7.433  15.191  67.168  0.00  0.00    +0.040 A 
ENDROOT
BRANCH   1  22
ATOM     21  C   UNL     1     -10.712  14.552  66.183  0.00  0.00    +0.253 C 
ATOM     22  O   UNL     1      -9.447  15.005  65.787  0.00  0.00    -0.468 OA
ENDBRANCH   1  22
TORSDOF 1
ENDMDL
MODEL 9
REMARK VINA RESULT:      -5.8      2.315      3.991
REMARK  Name = 
REMARK  1 active torsions:
REMARK  status: ('A' for Active; 'I' for Inactive)
REMARK    1  A    between atoms: O_2  and  C_3
REMARK                            x       y       z     vdW  Elec       q    Type
REMARK                         _______ _______ _______ _____ _____    ______ ____
ROOT
ATOM      1  C   UNL     1     -10.906  10.425  69.299  0.00  0.00    +0.172 A 
ATOM      2  C   UNL     1     -10.393  11.260  68.307  0.00  0.00    +0.168 A 
ATOM      3  O   UNL     1      -9.936  11.109  67.043  0.00  0.00    -0.474 OA
ATOM      4  C   UNL     1      -9.275  12.423  66.602  0.00  0.00    +0.200 C 
ATOM      5  C   UNL     1     -10.051  13.396  67.634  0.00  0.00    +0.063 C 
ATOM      6  C   UNL     1     -10.889  14.419  66.746  0.00  0.00    +0.022 C 
ATOM      7  C   UNL     1     -11.687  15.303  67.961  0.00  0.00    +0.062 C 
ATOM      8  N   UNL     1     -10.460  16.253  68.178  0.00  0.00    -0.272 NA
ATOM      9  C   UNL     1      -9.252  15.658  67.887  0.00  0.00    +0.073 C 
ATOM     10  C   UNL     1     -10.563  16.787  69.499  0.00  0.00    +0.090 C 
ATOM     11  C   UNL     1     -11.359  14.491  69.321  0.00  0.00    +0.042 C 
ATOM     12  C   UNL     1     -11.789  13.091  69.178  0.00  0.00    -0.022 A 
ATOM     13  C   UNL     1     -12.202  12.269  70.214  0.00  0.00    -0.001 A 
ATOM     14  C   UNL     1     -12.179  13.444  66.548  0.00  0.00    +0.005 C 
ATOM     15  C   UNL     1     -11.686  12.188  65.903  0.00  0.00    +0.037 C 
ATOM     16  C   UNL     1      -8.991  14.242  68.247  0.00  0.00    +0.025 C 
ATOM     17  C   UNL     1     -10.285  12.688  65.224  0.00  0.00    +0.192 C 
ATOM     18  O   UNL     1      -9.982  11.321  64.665  0.00  0.00    -0.219 OA
ATOM     19  C   UNL     1     -10.820  12.529  68.394  0.00  0.00    +0.014 A 
ATOM     20  C   UNL     1     -11.802  10.930  70.240  0.00  0.00    +0.040 A 
ENDROOT
BRANCH   1  22
ATOM     21  C   UNL     1      -8.774   9.371  69.903  0.00  0.00    +0.253 C 
ATOM     22  O   UNL     1     -10.123   9.291  69.537  0.00  0.00    -0.468 OA
ENDBRANCH   1  22
TORSDOF 1
ENDMDL
