MODEL 1
REMARK VINA RESULT:      -6.7      0.000      0.000
REMARK  Name = 
REMARK  2 active torsions:
REMARK  status: ('A' for Active; 'I' for Inactive)
REMARK    1  A    between atoms: C_6  and  C_7
REMARK    2  A    between atoms: C_6  and  C_13
REMARK                            x       y       z     vdW  Elec       q    Type
REMARK                         _______ _______ _______ _____ _____    ______ ____
ROOT
ATOM      1  O   UNL     1     -11.313  16.675  64.250  0.00  0.00    -0.249 OA
ATOM      2  C   UNL     1     -11.424  15.422  64.415  0.00  0.00    +0.347 C 
ATOM      3  N   UNL     1     -10.675  14.712  65.406  0.00  0.00    -0.173 NA
ATOM      4  C   UNL     1     -11.286  13.403  65.609  0.00  0.00    +0.188 C 
ATOM      5  C   UNL     1     -12.437  13.330  64.693  0.00  0.00    +0.275 C 
ATOM      6  O   UNL     1     -13.485  12.634  64.863  0.00  0.00    -0.270 OA
ATOM      7  N   UNL     1     -12.408  14.535  63.927  0.00  0.00    -0.124 NA
ENDROOT
BRANCH   4   8
ATOM      8  C   UNL     1     -11.707  13.293  67.030  0.00  0.00    +0.008 A 
ATOM      9  C   UNL     1     -11.887  14.438  67.795  0.00  0.00    -0.002 A 
ATOM     10  C   UNL     1     -12.062  14.316  69.152  0.00  0.00    -0.000 A 
ATOM     11  C   UNL     1     -11.644  13.164  69.803  0.00  0.00    -0.000 A 
ATOM     12  C   UNL     1     -11.688  11.989  69.062  0.00  0.00    -0.000 A 
ATOM     13  C   UNL     1     -11.813  12.071  67.681  0.00  0.00    -0.002 A 
ENDBRANCH   4   8
BRANCH   4  14
ATOM     14  C   UNL     1     -10.234  12.398  65.271  0.00  0.00    +0.008 A 
ATOM     15  C   UNL     1      -9.155  12.273  66.121  0.00  0.00    -0.002 A 
ATOM     16  C   UNL     1      -8.446  11.078  66.090  0.00  0.00    -0.000 A 
ATOM     17  C   UNL     1      -8.942   9.990  65.381  0.00  0.00    -0.000 A 
ATOM     18  C   UNL     1      -9.747  10.325  64.297  0.00  0.00    -0.000 A 
ATOM     19  C   UNL     1     -10.274  11.603  64.159  0.00  0.00    -0.002 A 
ENDBRANCH   4  14
TORSDOF 2
ENDMDL
MODEL 2
REMARK VINA RESULT:      -6.4      3.748      5.483
REMARK  Name = 
REMARK  2 active torsions:
REMARK  status: ('A' for Active; 'I' for Inactive)
REMARK    1  A    between atoms: C_6  and  C_7
REMARK    2  A    between atoms: C_6  and  C_13
REMARK                            x       y       z     vdW  Elec       q    Type
REMARK                         _______ _______ _______ _____ _____    ______ ____
ROOT
ATOM      1  O   UNL     1     -12.894  16.007  71.122  0.00  0.00    -0.249 OA
ATOM      2  C   UNL     1     -11.988  15.708  70.286  0.00  0.00    +0.347 C 
ATOM      3  N   UNL     1     -12.066  16.085  68.907  0.00  0.00    -0.173 NA
ATOM      4  C   UNL     1     -10.745  15.945  68.306  0.00  0.00    +0.188 C 
ATOM      5  C   UNL     1      -9.849  15.454  69.368  0.00  0.00    +0.275 C 
ATOM      6  O   UNL     1      -8.597  15.647  69.439  0.00  0.00    -0.270 OA
ATOM      7  N   UNL     1     -10.678  15.233  70.510  0.00  0.00    -0.124 NA
ENDROOT
BRANCH   4   8
ATOM      8  C   UNL     1     -10.315  17.273  67.795  0.00  0.00    +0.008 A 
ATOM      9  C   UNL     1      -9.979  18.286  68.684  0.00  0.00    -0.002 A 
ATOM     10  C   UNL     1      -9.795  19.561  68.205  0.00  0.00    -0.000 A 
ATOM     11  C   UNL     1     -10.342  19.928  66.984  0.00  0.00    -0.000 A 
ATOM     12  C   UNL     1     -10.460  18.919  66.035  0.00  0.00    -0.000 A 
ATOM     13  C   UNL     1     -10.351  17.596  66.445  0.00  0.00    -0.002 A 
ENDBRANCH   4   8
BRANCH   4  14
ATOM     14  C   UNL     1     -10.897  14.955  67.198  0.00  0.00    +0.008 A 
ATOM     15  C   UNL     1     -12.146  14.412  66.976  0.00  0.00    -0.002 A 
ATOM     16  C   UNL     1     -12.404  13.886  65.716  0.00  0.00    -0.000 A 
ATOM     17  C   UNL     1     -11.507  14.094  64.674  0.00  0.00    -0.000 A 
ATOM     18  C   UNL     1     -10.187  14.267  65.074  0.00  0.00    -0.000 A 
ATOM     19  C   UNL     1      -9.866  14.548  66.397  0.00  0.00    -0.002 A 
ENDBRANCH   4  14
TORSDOF 2
ENDMDL
MODEL 3
REMARK VINA RESULT:      -6.3      2.955      5.879
REMARK  Name = 
REMARK  2 active torsions:
REMARK  status: ('A' for Active; 'I' for Inactive)
REMARK    1  A    between atoms: C_6  and  C_7
REMARK    2  A    between atoms: C_6  and  C_13
REMARK                            x       y       z     vdW  Elec       q    Type
REMARK                         _______ _______ _______ _____ _____    ______ ____
ROOT
ATOM      1  O   UNL     1     -10.922  18.293  67.712  0.00  0.00    -0.249 OA
ATOM      2  C   UNL     1     -10.804  17.284  68.472  0.00  0.00    +0.347 C 
ATOM      3  N   UNL     1     -11.885  16.376  68.711  0.00  0.00    -0.173 NA
ATOM      4  C   UNL     1     -11.348  15.150  69.291  0.00  0.00    +0.188 C 
ATOM      5  C   UNL     1      -9.893  15.343  69.413  0.00  0.00    +0.275 C 
ATOM      6  O   UNL     1      -9.013  14.429  69.400  0.00  0.00    -0.270 OA
ATOM      7  N   UNL     1      -9.638  16.686  68.999  0.00  0.00    -0.124 NA
ENDROOT
BRANCH   4   8
ATOM      8  C   UNL     1     -11.678  14.016  68.389  0.00  0.00    +0.008 A 
ATOM      9  C   UNL     1     -11.484  12.708  68.814  0.00  0.00    -0.002 A 
ATOM     10  C   UNL     1     -11.586  11.686  67.902  0.00  0.00    -0.000 A 
ATOM     11  C   UNL     1     -11.450  11.952  66.547  0.00  0.00    -0.000 A 
ATOM     12  C   UNL     1     -11.864  13.208  66.121  0.00  0.00    -0.000 A 
ATOM     13  C   UNL     1     -12.063  14.205  67.068  0.00  0.00    -0.002 A 
ENDBRANCH   4   8
BRANCH   4  14
ATOM     14  C   UNL     1     -12.008  15.000  70.623  0.00  0.00    +0.008 A 
ATOM     15  C   UNL     1     -11.283  15.330  71.750  0.00  0.00    -0.002 A 
ATOM     16  C   UNL     1     -11.993  15.642  72.903  0.00  0.00    -0.000 A 
ATOM     17  C   UNL     1     -13.372  15.815  72.849  0.00  0.00    -0.000 A 
ATOM     18  C   UNL     1     -14.006  15.097  71.841  0.00  0.00    -0.000 A 
ATOM     19  C   UNL     1     -13.286  14.543  70.789  0.00  0.00    -0.002 A 
ENDBRANCH   4  14
TORSDOF 2
ENDMDL
MODEL 4
REMARK VINA RESULT:      -6.1      1.722      4.576
REMARK  Name = 
REMARK  2 active torsions:
REMARK  status: ('A' for Active; 'I' for Inactive)
REMARK    1  A    between atoms: C_6  and  C_7
REMARK    2  A    between atoms: C_6  and  C_13
REMARK                            x       y       z     vdW  Elec       q    Type
REMARK                         _______ _______ _______ _____ _____    ______ ____
ROOT
ATOM      1  O   UNL     1     -12.670  14.435  63.634  0.00  0.00    -0.249 OA
ATOM      2  C   UNL     1     -11.980  14.869  64.606  0.00  0.00    +0.347 C 
ATOM      3  N   UNL     1     -11.786  14.110  65.804  0.00  0.00    -0.173 NA
ATOM      4  C   UNL     1     -10.669  14.683  66.547  0.00  0.00    +0.188 C 
ATOM      5  C   UNL     1     -10.189  15.835  65.764  0.00  0.00    +0.275 C 
ATOM      6  O   UNL     1      -9.008  16.300  65.764  0.00  0.00    -0.270 OA
ATOM      7  N   UNL     1     -11.084  15.958  64.657  0.00  0.00    -0.124 NA
ENDROOT
BRANCH   4   8
ATOM      8  C   UNL     1      -9.617  13.644  66.696  0.00  0.00    +0.008 A 
ATOM      9  C   UNL     1      -9.703  12.457  65.979  0.00  0.00    -0.002 A 
ATOM     10  C   UNL     1      -8.849  11.426  66.287  0.00  0.00    -0.000 A 
ATOM     11  C   UNL     1      -8.230  11.388  67.528  0.00  0.00    -0.000 A 
ATOM     12  C   UNL     1      -7.960  12.616  68.120  0.00  0.00    -0.000 A 
ATOM     13  C   UNL     1      -8.594  13.751  67.629  0.00  0.00    -0.002 A 
ENDBRANCH   4   8
BRANCH   4  14
ATOM     14  C   UNL     1     -11.221  15.096  67.872  0.00  0.00    +0.008 A 
ATOM     15  C   UNL     1     -11.924  14.161  68.605  0.00  0.00    -0.002 A 
ATOM     16  C   UNL     1     -12.027  14.364  69.975  0.00  0.00    -0.000 A 
ATOM     17  C   UNL     1     -11.272  15.354  70.594  0.00  0.00    -0.000 A 
ATOM     18  C   UNL     1     -10.952  16.433  69.776  0.00  0.00    -0.000 A 
ATOM     19  C   UNL     1     -11.081  16.352  68.395  0.00  0.00    -0.002 A 
ENDBRANCH   4  14
TORSDOF 2
ENDMDL
MODEL 5
REMARK VINA RESULT:      -6.1      3.320      4.845
REMARK  Name = 
REMARK  2 active torsions:
REMARK  status: ('A' for Active; 'I' for Inactive)
REMARK    1  A    between atoms: C_6  and  C_7
REMARK    2  A    between atoms: C_6  and  C_13
REMARK                            x       y       z     vdW  Elec       q    Type
REMARK                         _______ _______ _______ _____ _____    ______ ____
ROOT
ATOM      1  O   UNL     1     -10.395  19.782  65.767  0.00  0.00    -0.249 OA
ATOM      2  C   UNL     1     -10.500  18.654  66.337  0.00  0.00    +0.347 C 
ATOM      3  N   UNL     1     -10.041  17.443  65.726  0.00  0.00    -0.173 NA
ATOM      4  C   UNL     1      -9.945  16.408  66.749  0.00  0.00    +0.188 C 
ATOM      5  C   UNL     1     -10.375  17.026  68.015  0.00  0.00    +0.275 C 
ATOM      6  O   UNL     1     -10.008  16.679  69.179  0.00  0.00    -0.270 OA
ATOM      7  N   UNL     1     -10.795  18.350  67.684  0.00  0.00    -0.124 NA
ENDROOT
BRANCH   4   8
ATOM      8  C   UNL     1      -8.536  15.941  66.817  0.00  0.00    +0.008 A 
ATOM      9  C   UNL     1      -8.249  14.653  67.251  0.00  0.00    -0.002 A 
ATOM     10  C   UNL     1      -6.944  14.310  67.514  0.00  0.00    -0.000 A 
ATOM     11  C   UNL     1      -6.006  15.301  67.767  0.00  0.00    -0.000 A 
ATOM     12  C   UNL     1      -6.213  16.520  67.134  0.00  0.00    -0.000 A 
ATOM     13  C   UNL     1      -7.460  16.787  66.582  0.00  0.00    -0.002 A 
ENDBRANCH   4   8
BRANCH   4  14
ATOM     14  C   UNL     1     -10.864  15.313  66.317  0.00  0.00    +0.008 A 
ATOM     15  C   UNL     1     -10.891  14.974  64.979  0.00  0.00    -0.002 A 
ATOM     16  C   UNL     1     -11.353  13.707  64.646  0.00  0.00    -0.000 A 
ATOM     17  C   UNL     1     -11.576  12.761  65.640  0.00  0.00    -0.000 A 
ATOM     18  C   UNL     1     -11.906  13.293  66.881  0.00  0.00    -0.000 A 
ATOM     19  C   UNL     1     -11.690  14.635  67.170  0.00  0.00    -0.002 A 
ENDBRANCH   4  14
TORSDOF 2
ENDMDL
MODEL 6
REMARK VINA RESULT:      -6.0      3.870      5.253
REMARK  Name = 
REMARK  2 active torsions:
REMARK  status: ('A' for Active; 'I' for Inactive)
REMARK    1  A    between atoms: C_6  and  C_7
REMARK    2  A    between atoms: C_6  and  C_13
REMARK                            x       y       z     vdW  Elec       q    Type
REMARK                         _______ _______ _______ _____ _____    ______ ____
ROOT
ATOM      1  O   UNL     1     -11.847  14.518  64.466  0.00  0.00    -0.249 OA
ATOM      2  C   UNL     1     -11.344  14.783  65.600  0.00  0.00    +0.347 C 
ATOM      3  N   UNL     1     -10.237  15.676  65.755  0.00  0.00    -0.173 NA
ATOM      4  C   UNL     1     -10.143  16.069  67.157  0.00  0.00    +0.188 C 
ATOM      5  C   UNL     1     -11.230  15.371  67.863  0.00  0.00    +0.275 C 
ATOM      6  O   UNL     1     -11.807  15.765  68.923  0.00  0.00    -0.270 OA
ATOM      7  N   UNL     1     -11.856  14.532  66.892  0.00  0.00    -0.124 NA
ENDROOT
BRANCH   4   8
ATOM      8  C   UNL     1     -10.288  17.545  67.245  0.00  0.00    +0.008 A 
ATOM      9  C   UNL     1     -10.513  18.294  66.097  0.00  0.00    -0.002 A 
ATOM     10  C   UNL     1     -10.430  19.664  66.165  0.00  0.00    -0.000 A 
ATOM     11  C   UNL     1      -9.727  20.264  67.199  0.00  0.00    -0.000 A 
ATOM     12  C   UNL     1      -9.710  19.580  68.409  0.00  0.00    -0.000 A 
ATOM     13  C   UNL     1     -10.083  18.242  68.429  0.00  0.00    -0.002 A 
ENDBRANCH   4   8
BRANCH   4  14
ATOM     14  C   UNL     1      -8.795  15.623  67.621  0.00  0.00    +0.008 A 
ATOM     15  C   UNL     1      -7.694  15.989  66.873  0.00  0.00    -0.002 A 
ATOM     16  C   UNL     1      -6.459  15.998  67.509  0.00  0.00    -0.000 A 
ATOM     17  C   UNL     1      -6.382  15.847  68.889  0.00  0.00    -0.000 A 
ATOM     18  C   UNL     1      -7.422  15.114  69.450  0.00  0.00    -0.000 A 
ATOM     19  C   UNL     1      -8.590  14.863  68.740  0.00  0.00    -0.002 A 
ENDBRANCH   4  14
TORSDOF 2
ENDMDL
MODEL 7
REMARK VINA RESULT:      -5.8      3.396      5.379
REMARK  Name = 
REMARK  2 active torsions:
REMARK  status: ('A' for Active; 'I' for Inactive)
REMARK    1  A    between atoms: C_6  and  C_7
REMARK    2  A    between atoms: C_6  and  C_13
REMARK                            x       y       z     vdW  Elec       q    Type
REMARK                         _______ _______ _______ _____ _____    ______ ____
ROOT
ATOM      1  O   UNL     1     -10.716  13.771  64.762  0.00  0.00    -0.249 OA
ATOM      2  C   UNL     1     -10.185  14.446  65.695  0.00  0.00    +0.347 C 
ATOM      3  N   UNL     1     -10.897  15.467  66.401  0.00  0.00    -0.173 NA
ATOM      4  C   UNL     1     -10.176  15.780  67.630  0.00  0.00    +0.188 C 
ATOM      5  C   UNL     1      -8.981  14.919  67.647  0.00  0.00    +0.275 C 
ATOM      6  O   UNL     1      -8.367  14.512  68.680  0.00  0.00    -0.270 OA
ATOM      7  N   UNL     1      -8.987  14.211  66.406  0.00  0.00    -0.124 NA
ENDROOT
BRANCH   4   8
ATOM      8  C   UNL     1     -11.068  15.504  68.786  0.00  0.00    +0.008 A 
ATOM      9  C   UNL     1     -11.037  16.329  69.903  0.00  0.00    -0.002 A 
ATOM     10  C   UNL     1     -11.703  15.940  71.040  0.00  0.00    -0.000 A 
ATOM     11  C   UNL     1     -12.021  14.603  71.233  0.00  0.00    -0.000 A 
ATOM     12  C   UNL     1     -12.263  13.857  70.086  0.00  0.00    -0.000 A 
ATOM     13  C   UNL     1     -11.861  14.366  68.857  0.00  0.00    -0.002 A 
ENDBRANCH   4   8
BRANCH   4  14
ATOM     14  C   UNL     1      -9.823  17.229  67.545  0.00  0.00    +0.008 A 
ATOM     15  C   UNL     1     -10.662  18.063  66.834  0.00  0.00    -0.002 A 
ATOM     16  C   UNL     1     -10.619  19.420  67.128  0.00  0.00    -0.000 A 
ATOM     17  C   UNL     1      -9.911  19.873  68.236  0.00  0.00    -0.000 A 
ATOM     18  C   UNL     1      -8.837  19.070  68.604  0.00  0.00    -0.000 A 
ATOM     19  C   UNL     1      -8.709  17.774  68.121  0.00  0.00    -0.002 A 
ENDBRANCH   4  14
TORSDOF 2
ENDMDL
MODEL 8
REMARK VINA RESULT:      -5.8      2.075      4.053
REMARK  Name = 
REMARK  2 active torsions:
REMARK  status: ('A' for Active; 'I' for Inactive)
REMARK    1  A    between atoms: C_6  and  C_7
REMARK    2  A    between atoms: C_6  and  C_13
REMARK                            x       y       z     vdW  Elec       q    Type
REMARK                         _______ _______ _______ _____ _____    ______ ____
ROOT
ATOM      1  O   UNL     1      -9.917  11.433  62.927  0.00  0.00    -0.249 OA
ATOM      2  C   UNL     1     -10.635  12.140  63.698  0.00  0.00    +0.347 C 
ATOM      3  N   UNL     1     -10.163  12.606  64.967  0.00  0.00    -0.173 NA
ATOM      4  C   UNL     1     -11.038  13.677  65.429  0.00  0.00    +0.188 C 
ATOM      5  C   UNL     1     -12.078  13.845  64.399  0.00  0.00    +0.275 C 
ATOM      6  O   UNL     1     -12.715  14.913  64.147  0.00  0.00    -0.270 OA
ATOM      7  N   UNL     1     -11.842  12.822  63.431  0.00  0.00    -0.124 NA
ENDROOT
BRANCH   4   8
ATOM      8  C   UNL     1     -10.227  14.911  65.597  0.00  0.00    +0.008 A 
ATOM      9  C   UNL     1      -9.002  14.857  66.250  0.00  0.00    -0.002 A 
ATOM     10  C   UNL     1      -8.371  16.030  66.586  0.00  0.00    -0.000 A 
ATOM     11  C   UNL     1      -9.101  17.207  66.679  0.00  0.00    -0.000 A 
ATOM     12  C   UNL     1     -10.205  17.313  65.842  0.00  0.00    -0.000 A 
ATOM     13  C   UNL     1     -10.700  16.166  65.235  0.00  0.00    -0.002 A 
ENDBRANCH   4   8
BRANCH   4  14
ATOM     14  C   UNL     1     -11.606  13.214  66.731  0.00  0.00    +0.008 A 
ATOM     15  C   UNL     1     -11.668  11.856  66.969  0.00  0.00    -0.002 A 
ATOM     16  C   UNL     1     -11.740  11.438  68.292  0.00  0.00    -0.000 A 
ATOM     17  C   UNL     1     -11.545  12.348  69.324  0.00  0.00    -0.000 A 
ATOM     18  C   UNL     1     -11.891  13.659  69.012  0.00  0.00    -0.000 A 
ATOM     19  C   UNL     1     -12.080  14.060  67.695  0.00  0.00    -0.002 A 
ENDBRANCH   4  14
TORSDOF 2
ENDMDL
MODEL 9
REMARK VINA RESULT:      -5.8      3.928      6.146
REMARK  Name = 
REMARK  2 active torsions:
REMARK  status: ('A' for Active; 'I' for Inactive)
REMARK    1  A    between atoms: C_6  and  C_7
REMARK    2  A    between atoms: C_6  and  C_13
REMARK                            x       y       z     vdW  Elec       q    Type
REMARK                         _______ _______ _______ _____ _____    ______ ____
ROOT
ATOM      1  O   UNL     1     -11.887  13.728  68.659  0.00  0.00    -0.249 OA
ATOM      2  C   UNL     1     -11.469  14.626  67.866  0.00  0.00    +0.347 C 
ATOM      3  N   UNL     1     -10.464  15.571  68.244  0.00  0.00    -0.173 NA
ATOM      4  C   UNL     1      -9.934  16.200  67.039  0.00  0.00    +0.188 C 
ATOM      5  C   UNL     1     -10.663  15.613  65.902  0.00  0.00    +0.275 C 
ATOM      6  O   UNL     1     -10.229  15.495  64.716  0.00  0.00    -0.270 OA
ATOM      7  N   UNL     1     -11.646  14.746  66.470  0.00  0.00    -0.124 NA
ENDROOT
BRANCH   4   8
ATOM      8  C   UNL     1      -8.477  15.920  66.961  0.00  0.00    +0.008 A 
ATOM      9  C   UNL     1      -7.954  14.776  67.550  0.00  0.00    -0.002 A 
ATOM     10  C   UNL     1      -6.591  14.642  67.657  0.00  0.00    -0.000 A 
ATOM     11  C   UNL     1      -5.778  15.764  67.592  0.00  0.00    -0.000 A 
ATOM     12  C   UNL     1      -6.238  16.813  66.807  0.00  0.00    -0.000 A 
ATOM     13  C   UNL     1      -7.573  16.827  66.422  0.00  0.00    -0.002 A 
ENDBRANCH   4   8
BRANCH   4  14
ATOM     14  C   UNL     1     -10.203  17.663  67.184  0.00  0.00    +0.008 A 
ATOM     15  C   UNL     1     -10.087  18.225  68.439  0.00  0.00    -0.002 A 
ATOM     16  C   UNL     1      -9.871  19.596  68.512  0.00  0.00    -0.000 A 
ATOM     17  C   UNL     1      -9.577  20.319  67.361  0.00  0.00    -0.000 A 
ATOM     18  C   UNL     1     -10.101  19.781  66.190  0.00  0.00    -0.000 A 
ATOM     19  C   UNL     1     -10.569  18.473  66.145  0.00  0.00    -0.002 A 
ENDBRANCH   4  14
TORSDOF 2
ENDMDL
