MODEL 1
REMARK VINA RESULT:      -5.5      0.000      0.000
REMARK  Name = 
REMARK  10 active torsions:
REMARK  status: ('A' for Active; 'I' for Inactive)
REMARK    1  A    between atoms: C_2  and  C_3
REMARK    2  A    between atoms: C_3  and  C_4
REMARK    3  A    between atoms: C_4  and  C_5
REMARK    4  A    between atoms: C_5  and  C_6
REMARK    5  A    between atoms: C_5  and  C_8
REMARK    6  A    between atoms: C_8  and  O_9
REMARK    7  A    between atoms: O_9  and  C_10
REMARK    8  A    between atoms: C_10  and  C_12
REMARK    9  A    between atoms: C_13  and  C_14
REMARK   10  A    between atoms: C_17  and  O_18
REMARK                            x       y       z     vdW  Elec       q    Type
REMARK                         _______ _______ _______ _____ _____    ______ ____
ROOT
ATOM      1  C   UNL     1     -11.920  14.569  64.940  0.00  0.00    +0.341 C 
ATOM      2  O   UNL     1     -12.554  14.414  63.880  0.00  0.00    -0.245 OA
ENDROOT
BRANCH   1   3
ATOM      3  C   UNL     1     -12.312  14.001  66.230  0.00  0.00    +0.082 C 
ATOM      4  C   UNL     1     -11.782  12.876  66.659  0.00  0.00    +0.007 C 
BRANCH   4   5
ATOM      5  C   UNL     1     -11.562  12.692  68.100  0.00  0.00    +0.000 A 
ATOM      6  C   UNL     1     -11.665  11.414  68.608  0.00  0.00    +0.003 A 
ATOM      7  C   UNL     1     -12.036  11.182  69.915  0.00  0.00    +0.037 A 
ATOM      8  C   UNL     1     -12.343  12.250  70.728  0.00  0.00    +0.139 A 
ATOM      9  C   UNL     1     -12.096  13.511  70.256  0.00  0.00    +0.037 A 
ATOM     10  C   UNL     1     -11.599  13.734  68.986  0.00  0.00    +0.003 A 
BRANCH   8  11
ATOM     11  O   UNL     1     -13.217  12.052  71.794  0.00  0.00    -0.471 OA
ATOM     12  C   UNL     1     -13.801  13.226  72.353  0.00  0.00    +0.252 C 
ENDBRANCH   8  11
ENDBRANCH   4   5
ENDBRANCH   1   3
BRANCH   1  13
ATOM     13  O   UNL     1     -10.732  15.250  64.901  0.00  0.00    -0.445 OA
BRANCH  13  14
ATOM     14  C   UNL     1     -10.465  16.286  65.795  0.00  0.00    +0.209 C 
BRANCH  14  15
ATOM     15  C   UNL     1      -8.857  16.202  66.142  0.00  0.00    +0.044 C 
BRANCH  15  16
ATOM     16  C   UNL     1      -9.142  15.922  67.740  0.00  0.00    +0.004 C 
ATOM     17  C   UNL     1      -8.281  14.703  68.050  0.00  0.00    +0.000 C 
ENDBRANCH  15  16
BRANCH  15  18
ATOM     18  C   UNL     1      -8.719  17.824  66.384  0.00  0.00    +0.004 C 
BRANCH  18  19
ATOM     19  C   UNL     1     -10.115  18.356  66.495  0.00  0.00    +0.000 C 
BRANCH  19  21
ATOM     20  C   UNL     1     -10.209  19.772  67.917  0.00  0.00    +0.000 C 
ATOM     21  C   UNL     1     -10.156  19.736  67.109  0.00  0.00    +0.000 C 
ENDBRANCH  19  21
ENDBRANCH  18  19
ENDBRANCH  15  18
ENDBRANCH  14  15
ENDBRANCH  13  14
ENDBRANCH   1  13
TORSDOF 10
ENDMDL
MODEL 2
REMARK VINA RESULT:      -5.4      2.049      3.692
REMARK  Name = 
REMARK  10 active torsions:
REMARK  status: ('A' for Active; 'I' for Inactive)
REMARK    1  A    between atoms: C_2  and  C_3
REMARK    2  A    between atoms: C_3  and  C_4
REMARK    3  A    between atoms: C_4  and  C_5
REMARK    4  A    between atoms: C_5  and  C_6
REMARK    5  A    between atoms: C_5  and  C_8
REMARK    6  A    between atoms: C_8  and  O_9
REMARK    7  A    between atoms: O_9  and  C_10
REMARK    8  A    between atoms: C_10  and  C_12
REMARK    9  A    between atoms: C_13  and  C_14
REMARK   10  A    between atoms: C_17  and  O_18
REMARK                            x       y       z     vdW  Elec       q    Type
REMARK                         _______ _______ _______ _____ _____    ______ ____
ROOT
ATOM      1  C   UNL     1     -11.034  15.844  64.729  0.00  0.00    +0.341 C 
ATOM      2  O   UNL     1     -11.551  16.711  64.001  0.00  0.00    -0.245 OA
ENDROOT
BRANCH   1   3
ATOM      3  C   UNL     1     -11.547  14.483  64.889  0.00  0.00    +0.082 C 
ATOM      4  C   UNL     1     -10.752  13.444  64.746  0.00  0.00    +0.007 C 
BRANCH   4   5
ATOM      5  C   UNL     1     -10.984  12.249  65.567  0.00  0.00    +0.000 A 
ATOM      6  C   UNL     1     -11.781  12.381  66.684  0.00  0.00    +0.003 A 
ATOM      7  C   UNL     1     -11.628  11.565  67.784  0.00  0.00    +0.037 A 
ATOM      8  C   UNL     1     -10.633  10.612  67.784  0.00  0.00    +0.139 A 
ATOM      9  C   UNL     1      -9.950  10.396  66.618  0.00  0.00    +0.037 A 
ATOM     10  C   UNL     1     -10.198  11.132  65.474  0.00  0.00    +0.003 A 
BRANCH   8  11
ATOM     11  O   UNL     1     -10.105  10.193  69.002  0.00  0.00    -0.471 OA
ATOM     12  C   UNL     1     -10.975  10.281  70.127  0.00  0.00    +0.252 C 
ENDBRANCH   8  11
ENDBRANCH   4   5
ENDBRANCH   1   3
BRANCH   1  13
ATOM     13  O   UNL     1      -9.862  16.142  65.373  0.00  0.00    -0.445 OA
BRANCH  13  14
ATOM     14  C   UNL     1      -9.774  17.227  66.244  0.00  0.00    +0.209 C 
BRANCH  14  15
ATOM     15  C   UNL     1     -10.501  16.762  67.646  0.00  0.00    +0.044 C 
BRANCH  15  16
ATOM     16  C   UNL     1     -10.134  18.183  68.394  0.00  0.00    +0.004 C 
ATOM     17  C   UNL     1     -10.539  19.240  67.373  0.00  0.00    +0.000 C 
ENDBRANCH  15  16
BRANCH  15  18
ATOM     18  C   UNL     1      -9.146  16.031  68.228  0.00  0.00    +0.004 C 
BRANCH  18  19
ATOM     19  C   UNL     1      -9.523  14.611  68.520  0.00  0.00    +0.000 C 
BRANCH  19  21
ATOM     20  C   UNL     1      -8.102  13.801  67.354  0.00  0.00    +0.000 C 
ATOM     21  C   UNL     1      -8.472  13.630  68.054  0.00  0.00    +0.000 C 
ENDBRANCH  19  21
ENDBRANCH  18  19
ENDBRANCH  15  18
ENDBRANCH  14  15
ENDBRANCH  13  14
ENDBRANCH   1  13
TORSDOF 10
ENDMDL
MODEL 3
REMARK VINA RESULT:      -5.4      2.352      4.240
REMARK  Name = 
REMARK  10 active torsions:
REMARK  status: ('A' for Active; 'I' for Inactive)
REMARK    1  A    between atoms: C_2  and  C_3
REMARK    2  A    between atoms: C_3  and  C_4
REMARK    3  A    between atoms: C_4  and  C_5
REMARK    4  A    between atoms: C_5  and  C_6
REMARK    5  A    between atoms: C_5  and  C_8
REMARK    6  A    between atoms: C_8  and  O_9
REMARK    7  A    between atoms: O_9  and  C_10
REMARK    8  A    between atoms: C_10  and  C_12
REMARK    9  A    between atoms: C_13  and  C_14
REMARK   10  A    between atoms: C_17  and  O_18
REMARK                            x       y       z     vdW  Elec       q    Type
REMARK                         _______ _______ _______ _____ _____    ______ ____
ROOT
ATOM      1  C   UNL     1     -11.610  11.936  68.191  0.00  0.00    +0.341 C 
ATOM      2  O   UNL     1     -12.050  10.773  68.252  0.00  0.00    -0.245 OA
ENDROOT
BRANCH   1   3
ATOM      3  C   UNL     1     -11.528  12.851  69.329  0.00  0.00    +0.082 C 
ATOM      4  C   UNL     1     -12.070  14.050  69.270  0.00  0.00    +0.007 C 
BRANCH   4   5
ATOM      5  C   UNL     1     -12.644  14.636  70.488  0.00  0.00    +0.000 A 
ATOM      6  C   UNL     1     -12.072  15.791  70.977  0.00  0.00    +0.003 A 
ATOM      7  C   UNL     1     -12.114  16.110  72.317  0.00  0.00    +0.037 A 
ATOM      8  C   UNL     1     -12.715  15.239  73.199  0.00  0.00    +0.139 A 
ATOM      9  C   UNL     1     -13.403  14.175  72.683  0.00  0.00    +0.037 A 
ATOM     10  C   UNL     1     -13.467  13.930  71.324  0.00  0.00    +0.003 A 
BRANCH   8  11
ATOM     11  O   UNL     1     -12.300  15.237  74.528  0.00  0.00    -0.471 OA
ATOM     12  C   UNL     1     -12.392  16.481  75.216  0.00  0.00    +0.252 C 
ENDBRANCH   8  11
ENDBRANCH   4   5
ENDBRANCH   1   3
BRANCH   1  13
ATOM     13  O   UNL     1     -11.093  12.381  67.003  0.00  0.00    -0.445 OA
BRANCH  13  14
ATOM     14  C   UNL     1     -11.832  12.308  65.823  0.00  0.00    +0.209 C 
BRANCH  14  15
ATOM     15  C   UNL     1     -11.977  13.850  65.264  0.00  0.00    +0.044 C 
BRANCH  15  16
ATOM     16  C   UNL     1     -12.182  13.345  63.710  0.00  0.00    +0.004 C 
ATOM     17  C   UNL     1     -11.497  11.984  63.681  0.00  0.00    +0.000 C 
ENDBRANCH  15  16
BRANCH  15  18
ATOM     18  C   UNL     1     -10.355  14.039  65.058  0.00  0.00    +0.004 C 
BRANCH  18  19
ATOM     19  C   UNL     1     -10.053  15.473  65.367  0.00  0.00    +0.000 C 
BRANCH  19  21
ATOM     20  C   UNL     1     -10.184  16.481  67.101  0.00  0.00    +0.000 C 
ATOM     21  C   UNL     1     -10.590  15.895  66.716  0.00  0.00    +0.000 C 
ENDBRANCH  19  21
ENDBRANCH  18  19
ENDBRANCH  15  18
ENDBRANCH  14  15
ENDBRANCH  13  14
ENDBRANCH   1  13
TORSDOF 10
ENDMDL
MODEL 4
REMARK VINA RESULT:      -5.4      2.707      4.993
REMARK  Name = 
REMARK  10 active torsions:
REMARK  status: ('A' for Active; 'I' for Inactive)
REMARK    1  A    between atoms: C_2  and  C_3
REMARK    2  A    between atoms: C_3  and  C_4
REMARK    3  A    between atoms: C_4  and  C_5
REMARK    4  A    between atoms: C_5  and  C_6
REMARK    5  A    between atoms: C_5  and  C_8
REMARK    6  A    between atoms: C_8  and  O_9
REMARK    7  A    between atoms: O_9  and  C_10
REMARK    8  A    between atoms: C_10  and  C_12
REMARK    9  A    between atoms: C_13  and  C_14
REMARK   10  A    between atoms: C_17  and  O_18
REMARK                            x       y       z     vdW  Elec       q    Type
REMARK                         _______ _______ _______ _____ _____    ______ ____
ROOT
ATOM      1  C   UNL     1     -10.921  16.255  64.880  0.00  0.00    +0.341 C 
ATOM      2  O   UNL     1     -11.611  16.617  63.909  0.00  0.00    -0.245 OA
ENDROOT
BRANCH   1   3
ATOM      3  C   UNL     1     -10.776  14.868  65.322  0.00  0.00    +0.082 C 
ATOM      4  C   UNL     1     -11.812  14.057  65.345  0.00  0.00    +0.007 C 
BRANCH   4   5
ATOM      5  C   UNL     1     -11.612  12.632  65.052  0.00  0.00    +0.000 A 
ATOM      6  C   UNL     1     -11.114  11.833  66.058  0.00  0.00    +0.003 A 
ATOM      7  C   UNL     1     -10.380  10.698  65.787  0.00  0.00    +0.037 A 
ATOM      8  C   UNL     1     -10.109  10.368  64.477  0.00  0.00    +0.139 A 
ATOM      9  C   UNL     1     -10.731  11.086  63.491  0.00  0.00    +0.037 A 
ATOM     10  C   UNL     1     -11.572  12.145  63.773  0.00  0.00    +0.003 A 
BRANCH   8  11
ATOM     11  O   UNL     1      -8.970   9.618  64.196  0.00  0.00    -0.471 OA
ATOM     12  C   UNL     1      -8.760   9.285  62.827  0.00  0.00    +0.252 C 
ENDBRANCH   8  11
ENDBRANCH   4   5
ENDBRANCH   1   3
BRANCH   1  13
ATOM     13  O   UNL     1     -10.180  17.196  65.546  0.00  0.00    -0.445 OA
BRANCH  13  14
ATOM     14  C   UNL     1      -9.655  16.937  66.811  0.00  0.00    +0.209 C 
BRANCH  14  15
ATOM     15  C   UNL     1     -10.494  17.880  67.868  0.00  0.00    +0.044 C 
BRANCH  15  16
ATOM     16  C   UNL     1      -9.118  18.556  68.470  0.00  0.00    +0.004 C 
ATOM     17  C   UNL     1      -8.119  17.405  68.462  0.00  0.00    +0.000 C 
ENDBRANCH  15  16
BRANCH  15  18
ATOM     18  C   UNL     1     -10.517  16.726  69.042  0.00  0.00    +0.004 C 
BRANCH  18  19
ATOM     19  C   UNL     1     -11.705  15.858  68.758  0.00  0.00    +0.000 C 
BRANCH  19  21
ATOM     20  C   UNL     1     -11.157  13.949  69.064  0.00  0.00    +0.000 C 
ATOM     21  C   UNL     1     -11.607  14.511  69.436  0.00  0.00    +0.000 C 
ENDBRANCH  19  21
ENDBRANCH  18  19
ENDBRANCH  15  18
ENDBRANCH  14  15
ENDBRANCH  13  14
ENDBRANCH   1  13
TORSDOF 10
ENDMDL
MODEL 5
REMARK VINA RESULT:      -5.4      1.871      3.113
REMARK  Name = 
REMARK  10 active torsions:
REMARK  status: ('A' for Active; 'I' for Inactive)
REMARK    1  A    between atoms: C_2  and  C_3
REMARK    2  A    between atoms: C_3  and  C_4
REMARK    3  A    between atoms: C_4  and  C_5
REMARK    4  A    between atoms: C_5  and  C_6
REMARK    5  A    between atoms: C_5  and  C_8
REMARK    6  A    between atoms: C_8  and  O_9
REMARK    7  A    between atoms: O_9  and  C_10
REMARK    8  A    between atoms: C_10  and  C_12
REMARK    9  A    between atoms: C_13  and  C_14
REMARK   10  A    between atoms: C_17  and  O_18
REMARK                            x       y       z     vdW  Elec       q    Type
REMARK                         _______ _______ _______ _____ _____    ______ ____
ROOT
ATOM      1  C   UNL     1     -10.957  16.075  64.874  0.00  0.00    +0.341 C 
ATOM      2  O   UNL     1     -11.528  16.632  63.918  0.00  0.00    -0.245 OA
ENDROOT
BRANCH   1   3
ATOM      3  C   UNL     1     -11.205  14.696  65.297  0.00  0.00    +0.082 C 
ATOM      4  C   UNL     1     -10.392  13.726  64.936  0.00  0.00    +0.007 C 
BRANCH   4   5
ATOM      5  C   UNL     1     -10.162  12.606  65.858  0.00  0.00    +0.000 A 
ATOM      6  C   UNL     1     -11.223  11.768  66.128  0.00  0.00    +0.003 A 
ATOM      7  C   UNL     1     -11.320  11.083  67.321  0.00  0.00    +0.037 A 
ATOM      8  C   UNL     1     -10.350  11.263  68.282  0.00  0.00    +0.139 A 
ATOM      9  C   UNL     1      -9.234  11.979  67.944  0.00  0.00    +0.037 A 
ATOM     10  C   UNL     1      -9.082  12.557  66.697  0.00  0.00    +0.003 A 
BRANCH   8  11
ATOM     11  O   UNL     1     -10.684  11.062  69.618  0.00  0.00    -0.471 OA
ATOM     12  C   UNL     1     -12.043  10.727  69.882  0.00  0.00    +0.252 C 
ENDBRANCH   8  11
ENDBRANCH   4   5
ENDBRANCH   1   3
BRANCH   1  13
ATOM     13  O   UNL     1      -9.974  16.757  65.540  0.00  0.00    -0.445 OA
BRANCH  13  14
ATOM     14  C   UNL     1     -10.249  17.456  66.715  0.00  0.00    +0.209 C 
BRANCH  14  15
ATOM     15  C   UNL     1      -8.907  17.330  67.660  0.00  0.00    +0.044 C 
BRANCH  15  16
ATOM     16  C   UNL     1      -8.034  16.627  66.453  0.00  0.00    +0.004 C 
ATOM     17  C   UNL     1      -7.120  15.655  67.190  0.00  0.00    +0.000 C 
ENDBRANCH  15  16
BRANCH  15  18
ATOM     18  C   UNL     1      -9.351  15.870  68.277  0.00  0.00    +0.004 C 
BRANCH  18  19
ATOM     19  C   UNL     1     -10.753  16.031  68.779  0.00  0.00    +0.000 C 
BRANCH  19  21
ATOM     20  C   UNL     1     -11.954  14.426  68.908  0.00  0.00    +0.000 C 
ATOM     21  C   UNL     1     -11.325  14.737  69.311  0.00  0.00    +0.000 C 
ENDBRANCH  19  21
ENDBRANCH  18  19
ENDBRANCH  15  18
ENDBRANCH  14  15
ENDBRANCH  13  14
ENDBRANCH   1  13
TORSDOF 10
ENDMDL
MODEL 6
REMARK VINA RESULT:      -5.3      2.786      4.426
REMARK  Name = 
REMARK  10 active torsions:
REMARK  status: ('A' for Active; 'I' for Inactive)
REMARK    1  A    between atoms: C_2  and  C_3
REMARK    2  A    between atoms: C_3  and  C_4
REMARK    3  A    between atoms: C_4  and  C_5
REMARK    4  A    between atoms: C_5  and  C_6
REMARK    5  A    between atoms: C_5  and  C_8
REMARK    6  A    between atoms: C_8  and  O_9
REMARK    7  A    between atoms: O_9  and  C_10
REMARK    8  A    between atoms: C_10  and  C_12
REMARK    9  A    between atoms: C_13  and  C_14
REMARK   10  A    between atoms: C_17  and  O_18
REMARK                            x       y       z     vdW  Elec       q    Type
REMARK                         _______ _______ _______ _____ _____    ______ ____
ROOT
ATOM      1  C   UNL     1     -13.538  14.895  71.286  0.00  0.00    +0.341 C 
ATOM      2  O   UNL     1     -14.769  14.990  71.447  0.00  0.00    -0.245 OA
ENDROOT
BRANCH   1   3
ATOM      3  C   UNL     1     -12.781  13.650  71.414  0.00  0.00    +0.082 C 
ATOM      4  C   UNL     1     -13.344  12.566  71.903  0.00  0.00    +0.007 C 
BRANCH   4   5
ATOM      5  C   UNL     1     -12.938  11.253  71.385  0.00  0.00    +0.000 A 
ATOM      6  C   UNL     1     -13.340  10.134  72.084  0.00  0.00    +0.003 A 
ATOM      7  C   UNL     1     -12.610   8.965  72.060  0.00  0.00    +0.037 A 
ATOM      8  C   UNL     1     -11.434   8.919  71.346  0.00  0.00    +0.139 A 
ATOM      9  C   UNL     1     -11.127   9.983  70.542  0.00  0.00    +0.037 A 
ATOM     10  C   UNL     1     -11.931  11.105  70.470  0.00  0.00    +0.003 A 
BRANCH   8  11
ATOM     11  O   UNL     1     -10.446   8.019  71.737  0.00  0.00    -0.471 OA
ATOM     12  C   UNL     1     -10.545   7.516  73.066  0.00  0.00    +0.252 C 
ENDBRANCH   8  11
ENDBRANCH   4   5
ENDBRANCH   1   3
BRANCH   1  13
ATOM     13  O   UNL     1     -12.840  16.004  70.888  0.00  0.00    -0.445 OA
BRANCH  13  14
ATOM     14  C   UNL     1     -11.515  15.909  70.466  0.00  0.00    +0.209 C 
BRANCH  14  15
ATOM     15  C   UNL     1     -11.537  16.031  68.824  0.00  0.00    +0.044 C 
BRANCH  15  16
ATOM     16  C   UNL     1     -10.527  14.743  68.642  0.00  0.00    +0.004 C 
ATOM     17  C   UNL     1     -11.406  13.689  67.979  0.00  0.00    +0.000 C 
ENDBRANCH  15  16
BRANCH  15  18
ATOM     18  C   UNL     1     -10.285  17.100  68.783  0.00  0.00    +0.004 C 
BRANCH  18  19
ATOM     19  C   UNL     1     -10.596  18.074  67.688  0.00  0.00    +0.000 C 
BRANCH  19  21
ATOM     20  C   UNL     1     -10.120  20.001  67.376  0.00  0.00    +0.000 C 
ATOM     21  C   UNL     1     -10.010  19.442  67.952  0.00  0.00    +0.000 C 
ENDBRANCH  19  21
ENDBRANCH  18  19
ENDBRANCH  15  18
ENDBRANCH  14  15
ENDBRANCH  13  14
ENDBRANCH   1  13
TORSDOF 10
ENDMDL
MODEL 7
REMARK VINA RESULT:      -5.3      2.720      4.709
REMARK  Name = 
REMARK  10 active torsions:
REMARK  status: ('A' for Active; 'I' for Inactive)
REMARK    1  A    between atoms: C_2  and  C_3
REMARK    2  A    between atoms: C_3  and  C_4
REMARK    3  A    between atoms: C_4  and  C_5
REMARK    4  A    between atoms: C_5  and  C_6
REMARK    5  A    between atoms: C_5  and  C_8
REMARK    6  A    between atoms: C_8  and  O_9
REMARK    7  A    between atoms: O_9  and  C_10
REMARK    8  A    between atoms: C_10  and  C_12
REMARK    9  A    between atoms: C_13  and  C_14
REMARK   10  A    between atoms: C_17  and  O_18
REMARK                            x       y       z     vdW  Elec       q    Type
REMARK                         _______ _______ _______ _____ _____    ______ ____
ROOT
ATOM      1  C   UNL     1     -11.608  12.652  67.755  0.00  0.00    +0.341 C 
ATOM      2  O   UNL     1     -11.949  11.922  66.807  0.00  0.00    -0.245 OA
ENDROOT
BRANCH   1   3
ATOM      3  C   UNL     1     -11.310  12.172  69.105  0.00  0.00    +0.082 C 
ATOM      4  C   UNL     1     -12.279  11.909  69.955  0.00  0.00    +0.007 C 
BRANCH   4   5
ATOM      5  C   UNL     1     -12.108  10.814  70.918  0.00  0.00    +0.000 A 
ATOM      6  C   UNL     1     -11.072   9.929  70.707  0.00  0.00    +0.003 A 
ATOM      7  C   UNL     1     -11.132   8.624  71.148  0.00  0.00    +0.037 A 
ATOM      8  C   UNL     1     -12.268   8.181  71.789  0.00  0.00    +0.139 A 
ATOM      9  C   UNL     1     -13.222   9.105  72.119  0.00  0.00    +0.037 A 
ATOM     10  C   UNL     1     -13.097  10.441  71.788  0.00  0.00    +0.003 A 
BRANCH   8  11
ATOM     11  O   UNL     1     -12.583   6.826  71.736  0.00  0.00    -0.471 OA
ATOM     12  C   UNL     1     -11.584   5.930  72.214  0.00  0.00    +0.252 C 
ENDBRANCH   8  11
ENDBRANCH   4   5
ENDBRANCH   1   3
BRANCH   1  13
ATOM     13  O   UNL     1     -11.419  13.989  67.519  0.00  0.00    -0.445 OA
BRANCH  13  14
ATOM     14  C   UNL     1     -10.642  14.768  68.375  0.00  0.00    +0.209 C 
BRANCH  14  15
ATOM     15  C   UNL     1     -11.594  16.020  68.862  0.00  0.00    +0.044 C 
BRANCH  15  16
ATOM     16  C   UNL     1     -10.324  17.068  68.898  0.00  0.00    +0.004 C 
ATOM     17  C   UNL     1     -10.496  17.886  67.623  0.00  0.00    +0.000 C 
ENDBRANCH  15  16
BRANCH  15  18
ATOM     18  C   UNL     1     -11.427  15.662  70.459  0.00  0.00    +0.004 C 
BRANCH  18  19
ATOM     19  C   UNL     1     -12.808  15.411  70.983  0.00  0.00    +0.000 C 
BRANCH  19  21
ATOM     20  C   UNL     1     -13.519  14.414  72.576  0.00  0.00    +0.000 C 
ATOM     21  C   UNL     1     -12.798  14.632  72.278  0.00  0.00    +0.000 C 
ENDBRANCH  19  21
ENDBRANCH  18  19
ENDBRANCH  15  18
ENDBRANCH  14  15
ENDBRANCH  13  14
ENDBRANCH   1  13
TORSDOF 10
ENDMDL
MODEL 8
REMARK VINA RESULT:      -5.3      3.616      8.575
REMARK  Name = 
REMARK  10 active torsions:
REMARK  status: ('A' for Active; 'I' for Inactive)
REMARK    1  A    between atoms: C_2  and  C_3
REMARK    2  A    between atoms: C_3  and  C_4
REMARK    3  A    between atoms: C_4  and  C_5
REMARK    4  A    between atoms: C_5  and  C_6
REMARK    5  A    between atoms: C_5  and  C_8
REMARK    6  A    between atoms: C_8  and  O_9
REMARK    7  A    between atoms: O_9  and  C_10
REMARK    8  A    between atoms: C_10  and  C_12
REMARK    9  A    between atoms: C_13  and  C_14
REMARK   10  A    between atoms: C_17  and  O_18
REMARK                            x       y       z     vdW  Elec       q    Type
REMARK                         _______ _______ _______ _____ _____    ______ ____
ROOT
ATOM      1  C   UNL     1     -13.525   8.847  72.005  0.00  0.00    +0.341 C 
ATOM      2  O   UNL     1     -14.528   8.786  72.740  0.00  0.00    -0.245 OA
ENDROOT
BRANCH   1   3
ATOM      3  C   UNL     1     -13.285   9.900  71.018  0.00  0.00    +0.082 C 
ATOM      4  C   UNL     1     -12.213  10.661  71.093  0.00  0.00    +0.007 C 
BRANCH   4   5
ATOM      5  C   UNL     1     -11.587  11.138  69.854  0.00  0.00    +0.000 A 
ATOM      6  C   UNL     1     -11.789  12.454  69.497  0.00  0.00    +0.003 A 
ATOM      7  C   UNL     1     -11.761  12.859  68.180  0.00  0.00    +0.037 A 
ATOM      8  C   UNL     1     -11.556  11.923  67.190  0.00  0.00    +0.139 A 
ATOM      9  C   UNL     1     -11.211  10.654  67.567  0.00  0.00    +0.037 A 
ATOM     10  C   UNL     1     -11.114  10.283  68.896  0.00  0.00    +0.003 A 
BRANCH   8  11
ATOM     11  O   UNL     1     -12.061  12.171  65.917  0.00  0.00    -0.471 OA
ATOM     12  C   UNL     1     -12.347  13.532  65.609  0.00  0.00    +0.252 C 
ENDBRANCH   8  11
ENDBRANCH   4   5
ENDBRANCH   1   3
BRANCH   1  13
ATOM     13  O   UNL     1     -12.533   7.917  72.170  0.00  0.00    -0.445 OA
BRANCH  13  14
ATOM     14  C   UNL     1     -12.244   6.987  71.172  0.00  0.00    +0.209 C 
BRANCH  14  15
ATOM     15  C   UNL     1     -10.725   6.430  71.478  0.00  0.00    +0.044 C 
BRANCH  15  16
ATOM     16  C   UNL     1     -10.237   7.881  72.087  0.00  0.00    +0.004 C 
ATOM     17  C   UNL     1      -9.004   8.222  71.258  0.00  0.00    +0.000 C 
ENDBRANCH  15  16
BRANCH  15  18
ATOM     18  C   UNL     1     -10.172   6.803  69.973  0.00  0.00    +0.004 C 
BRANCH  18  19
ATOM     19  C   UNL     1     -11.126   6.173  69.004  0.00  0.00    +0.000 C 
BRANCH  19  21
ATOM     20  C   UNL     1     -10.774   6.205  67.027  0.00  0.00    +0.000 C 
ATOM     21  C   UNL     1     -10.978   6.731  67.607  0.00  0.00    +0.000 C 
ENDBRANCH  19  21
ENDBRANCH  18  19
ENDBRANCH  15  18
ENDBRANCH  14  15
ENDBRANCH  13  14
ENDBRANCH   1  13
TORSDOF 10
ENDMDL
MODEL 9
REMARK VINA RESULT:      -5.2      2.125      3.833
REMARK  Name = 
REMARK  10 active torsions:
REMARK  status: ('A' for Active; 'I' for Inactive)
REMARK    1  A    between atoms: C_2  and  C_3
REMARK    2  A    between atoms: C_3  and  C_4
REMARK    3  A    between atoms: C_4  and  C_5
REMARK    4  A    between atoms: C_5  and  C_6
REMARK    5  A    between atoms: C_5  and  C_8
REMARK    6  A    between atoms: C_8  and  O_9
REMARK    7  A    between atoms: O_9  and  C_10
REMARK    8  A    between atoms: C_10  and  C_12
REMARK    9  A    between atoms: C_13  and  C_14
REMARK   10  A    between atoms: C_17  and  O_18
REMARK                            x       y       z     vdW  Elec       q    Type
REMARK                         _______ _______ _______ _____ _____    ______ ____
ROOT
ATOM      1  C   UNL     1     -11.099  13.033  66.706  0.00  0.00    +0.341 C 
ATOM      2  O   UNL     1     -10.483  12.560  65.733  0.00  0.00    -0.245 OA
ENDROOT
BRANCH   1   3
ATOM      3  C   UNL     1     -11.756  12.231  67.738  0.00  0.00    +0.082 C 
ATOM      4  C   UNL     1     -11.121  11.241  68.328  0.00  0.00    +0.007 C 
BRANCH   4   5
ATOM      5  C   UNL     1     -11.404  10.950  69.739  0.00  0.00    +0.000 A 
ATOM      6  C   UNL     1     -11.115   9.685  70.205  0.00  0.00    +0.003 A 
ATOM      7  C   UNL     1     -11.808   9.124  71.257  0.00  0.00    +0.037 A 
ATOM      8  C   UNL     1     -12.836   9.831  71.840  0.00  0.00    +0.139 A 
ATOM      9  C   UNL     1     -13.013  11.135  71.466  0.00  0.00    +0.037 A 
ATOM     10  C   UNL     1     -12.228  11.735  70.499  0.00  0.00    +0.003 A 
BRANCH   8  11
ATOM     11  O   UNL     1     -13.862   9.129  72.467  0.00  0.00    -0.471 OA
ATOM     12  C   UNL     1     -14.345   7.978  71.781  0.00  0.00    +0.252 C 
ENDBRANCH   8  11
ENDBRANCH   4   5
ENDBRANCH   1   3
BRANCH   1  13
ATOM     13  O   UNL     1     -11.107  14.391  66.881  0.00  0.00    -0.445 OA
BRANCH  13  14
ATOM     14  C   UNL     1     -10.425  14.986  67.942  0.00  0.00    +0.209 C 
BRANCH  14  15
ATOM     15  C   UNL     1     -11.529  15.894  68.758  0.00  0.00    +0.044 C 
BRANCH  15  16
ATOM     16  C   UNL     1     -10.441  17.101  69.032  0.00  0.00    +0.004 C 
ATOM     17  C   UNL     1     -10.319  17.789  67.678  0.00  0.00    +0.000 C 
ENDBRANCH  15  16
BRANCH  15  18
ATOM     18  C   UNL     1     -11.201  15.182  70.205  0.00  0.00    +0.004 C 
BRANCH  18  19
ATOM     19  C   UNL     1     -12.038  15.890  71.225  0.00  0.00    +0.000 C 
BRANCH  19  21
ATOM     20  C   UNL     1     -13.769  15.390  72.114  0.00  0.00    +0.000 C 
ATOM     21  C   UNL     1     -13.386  15.234  71.418  0.00  0.00    +0.000 C 
ENDBRANCH  19  21
ENDBRANCH  18  19
ENDBRANCH  15  18
ENDBRANCH  14  15
ENDBRANCH  13  14
ENDBRANCH   1  13
TORSDOF 10
ENDMDL
