MODEL 1
REMARK VINA RESULT:      -7.9      0.000      0.000
REMARK  Name = 
REMARK  5 active torsions:
REMARK  status: ('A' for Active; 'I' for Inactive)
REMARK    1  A    between atoms: O_2  and  C_3
REMARK    2  A    between atoms: C_6  and  N_7
REMARK    3  A    between atoms: C_9  and  C_10
REMARK    4  A    between atoms: N_17  and  C_18
REMARK    5  A    between atoms: C_21  and  N_22
REMARK                            x       y       z     vdW  Elec       q    Type
REMARK                         _______ _______ _______ _____ _____    ______ ____
ROOT
ATOM      1  N   UNL     1     -11.606  13.529  69.271  0.00  0.00    -0.225 N 
ATOM      2  C   UNL     1     -11.744  12.340  69.901  0.00  0.00    +0.134 A 
ATOM      3  C   UNL     1     -11.340  10.963  69.591  0.00  0.00    +0.270 C 
ATOM      4  N   UNL     1     -11.930   9.835  70.243  0.00  0.00    -0.254 N 
ATOM      5  C   UNL     1     -13.195  10.095  70.925  0.00  0.00    +0.103 C 
ATOM      6  C   UNL     1     -13.011  11.332  71.795  0.00  0.00    +0.052 C 
ATOM      7  O   UNL     1     -10.465  10.757  68.725  0.00  0.00    -0.268 OA
ATOM      8  C   UNL     1     -12.554  12.499  71.012  0.00  0.00    +0.026 A 
ATOM      9  C   UNL     1     -12.742  13.871  71.109  0.00  0.00    +0.155 A 
ATOM     10  N   UNL     1     -12.076  14.454  70.083  0.00  0.00    -0.161 NA
ENDROOT
BRANCH   1  14
ATOM     11  C   UNL     1     -10.694  13.303  65.265  0.00  0.00    +0.139 A 
ATOM     12  C   UNL     1      -9.717  13.781  66.124  0.00  0.00    +0.038 A 
ATOM     13  C   UNL     1     -10.020  14.034  67.454  0.00  0.00    +0.022 A 
ATOM     14  C   UNL     1     -11.251  13.608  67.895  0.00  0.00    +0.083 A 
ATOM     15  C   UNL     1     -12.284  13.642  66.968  0.00  0.00    +0.022 A 
ATOM     16  C   UNL     1     -12.020  13.443  65.631  0.00  0.00    +0.038 A 
BRANCH  11  18
ATOM     17  C   UNL     1     -10.844  11.610  63.565  0.00  0.00    +0.252 C 
ATOM     18  O   UNL     1     -10.384  12.874  63.977  0.00  0.00    -0.471 OA
ENDBRANCH  11  18
ENDBRANCH   1  14
BRANCH   4  19
ATOM     19  C   UNL     1     -11.073   8.754  70.627  0.00  0.00    +0.054 A 
ATOM     20  C   UNL     1     -11.219   7.474  70.159  0.00  0.00    +0.016 A 
ATOM     21  C   UNL     1     -10.349   6.502  70.637  0.00  0.00    +0.016 A 
ATOM     22  C   UNL     1     -10.026   6.571  71.965  0.00  0.00    +0.054 A 
ATOM     23  C   UNL     1     -10.026   7.803  72.591  0.00  0.00    +0.016 A 
ATOM     24  C   UNL     1     -10.430   8.907  71.850  0.00  0.00    +0.016 A 
BRANCH  22  25
ATOM     25  N   UNL     1      -9.553   5.467  72.704  0.00  0.00    -0.259 N 
ATOM     26  C   UNL     1     -10.429   4.592  73.427  0.00  0.00    +0.229 C 
ATOM     27  O   UNL     1     -11.683   4.684  73.262  0.00  0.00    -0.275 OA
ATOM     28  C   UNL     1      -9.791   3.335  73.929  0.00  0.00    +0.086 C 
ATOM     29  C   UNL     1      -8.499   3.617  74.647  0.00  0.00    +0.011 C 
ATOM     30  C   UNL     1      -7.666   4.675  73.959  0.00  0.00    +0.022 C 
ATOM     31  C   UNL     1      -8.182   4.984  72.562  0.00  0.00    +0.098 C 
ENDBRANCH  22  25
ENDBRANCH   4  19
BRANCH   9  32
ATOM     32  C   UNL     1     -13.727  14.461  71.998  0.00  0.00    +0.303 C 
ATOM     33  O   UNL     1     -13.518  14.611  73.219  0.00  0.00    -0.265 OA
ATOM     34  N   UNL     1     -14.721  15.290  71.395  0.00  0.00    -0.082 NA
ENDBRANCH   9  32
TORSDOF 5
ENDMDL
MODEL 2
REMARK VINA RESULT:      -7.8      3.932     10.310
REMARK  Name = 
REMARK  5 active torsions:
REMARK  status: ('A' for Active; 'I' for Inactive)
REMARK    1  A    between atoms: O_2  and  C_3
REMARK    2  A    between atoms: C_6  and  N_7
REMARK    3  A    between atoms: C_9  and  C_10
REMARK    4  A    between atoms: N_17  and  C_18
REMARK    5  A    between atoms: C_21  and  N_22
REMARK                            x       y       z     vdW  Elec       q    Type
REMARK                         _______ _______ _______ _____ _____    ______ ____
ROOT
ATOM      1  N   UNL     1      -9.077   8.545  65.852  0.00  0.00    -0.225 N 
ATOM      2  C   UNL     1      -9.518   9.806  65.637  0.00  0.00    +0.134 A 
ATOM      3  C   UNL     1     -10.217  10.801  66.460  0.00  0.00    +0.270 C 
ATOM      4  N   UNL     1     -10.896  11.920  65.884  0.00  0.00    -0.254 N 
ATOM      5  C   UNL     1     -11.188  11.809  64.457  0.00  0.00    +0.103 C 
ATOM      6  C   UNL     1      -9.907  11.384  63.749  0.00  0.00    +0.052 C 
ATOM      7  O   UNL     1     -10.235  10.671  67.702  0.00  0.00    -0.268 OA
ATOM      8  C   UNL     1      -9.357  10.128  64.302  0.00  0.00    +0.026 A 
ATOM      9  C   UNL     1      -8.637   9.065  63.773  0.00  0.00    +0.155 A 
ATOM     10  N   UNL     1      -8.419   8.176  64.772  0.00  0.00    -0.161 NA
ENDROOT
BRANCH   1  14
ATOM     11  C   UNL     1     -10.774   6.570  69.039  0.00  0.00    +0.139 A 
ATOM     12  C   UNL     1      -9.530   7.151  69.226  0.00  0.00    +0.038 A 
ATOM     13  C   UNL     1      -8.838   7.684  68.148  0.00  0.00    +0.022 A 
ATOM     14  C   UNL     1      -9.527   7.776  66.961  0.00  0.00    +0.083 A 
ATOM     15  C   UNL     1     -10.464   6.782  66.714  0.00  0.00    +0.022 A 
ATOM     16  C   UNL     1     -11.140   6.191  67.760  0.00  0.00    +0.038 A 
BRANCH  11  18
ATOM     17  C   UNL     1     -11.944   7.167  71.053  0.00  0.00    +0.252 C 
ATOM     18  O   UNL     1     -11.569   6.187  70.117  0.00  0.00    -0.471 OA
ENDBRANCH  11  18
ENDBRANCH   1  14
BRANCH   4  19
ATOM     19  C   UNL     1     -10.775  13.190  66.534  0.00  0.00    +0.054 A 
ATOM     20  C   UNL     1     -11.842  14.017  66.771  0.00  0.00    +0.016 A 
ATOM     21  C   UNL     1     -11.592  15.244  67.375  0.00  0.00    +0.016 A 
ATOM     22  C   UNL     1     -10.460  15.902  66.976  0.00  0.00    +0.054 A 
ATOM     23  C   UNL     1      -9.376  15.164  66.538  0.00  0.00    +0.016 A 
ATOM     24  C   UNL     1      -9.522  13.785  66.454  0.00  0.00    +0.016 A 
BRANCH  22  25
ATOM     25  N   UNL     1     -10.283  17.294  67.121  0.00  0.00    -0.259 N 
ATOM     26  C   UNL     1     -10.461  18.209  66.033  0.00  0.00    +0.229 C 
ATOM     27  O   UNL     1     -10.972  17.800  64.946  0.00  0.00    -0.275 OA
ATOM     28  C   UNL     1     -10.493  19.654  66.422  0.00  0.00    +0.086 C 
ATOM     29  C   UNL     1      -9.342  20.010  67.324  0.00  0.00    +0.011 C 
ATOM     30  C   UNL     1      -9.057  18.946  68.358  0.00  0.00    +0.022 C 
ATOM     31  C   UNL     1     -10.175  17.918  68.437  0.00  0.00    +0.098 C 
ENDBRANCH  22  25
ENDBRANCH   4  19
BRANCH   9  32
ATOM     32  C   UNL     1      -8.456   8.882  62.344  0.00  0.00    +0.303 C 
ATOM     33  O   UNL     1      -9.405   8.616  61.580  0.00  0.00    -0.265 OA
ATOM     34  N   UNL     1      -7.292   9.473  61.765  0.00  0.00    -0.082 NA
ENDBRANCH   9  32
TORSDOF 5
ENDMDL
MODEL 3
REMARK VINA RESULT:      -7.7      1.490      1.834
REMARK  Name = 
REMARK  5 active torsions:
REMARK  status: ('A' for Active; 'I' for Inactive)
REMARK    1  A    between atoms: O_2  and  C_3
REMARK    2  A    between atoms: C_6  and  N_7
REMARK    3  A    between atoms: C_9  and  C_10
REMARK    4  A    between atoms: N_17  and  C_18
REMARK    5  A    between atoms: C_21  and  N_22
REMARK                            x       y       z     vdW  Elec       q    Type
REMARK                         _______ _______ _______ _____ _____    ______ ____
ROOT
ATOM      1  N   UNL     1     -11.407  13.514  68.928  0.00  0.00    -0.225 N 
ATOM      2  C   UNL     1     -11.768  12.600  69.859  0.00  0.00    +0.134 A 
ATOM      3  C   UNL     1     -11.782  11.133  69.904  0.00  0.00    +0.270 C 
ATOM      4  N   UNL     1     -12.556  10.412  70.865  0.00  0.00    -0.254 N 
ATOM      5  C   UNL     1     -13.609  11.178  71.525  0.00  0.00    +0.103 C 
ATOM      6  C   UNL     1     -12.998  12.482  72.022  0.00  0.00    +0.052 C 
ATOM      7  O   UNL     1     -11.110  10.485  69.075  0.00  0.00    -0.268 OA
ATOM      8  C   UNL     1     -12.357  13.246  70.932  0.00  0.00    +0.026 A 
ATOM      9  C   UNL     1     -12.166  14.596  70.670  0.00  0.00    +0.155 A 
ATOM     10  N   UNL     1     -11.510  14.701  69.489  0.00  0.00    -0.161 NA
ENDROOT
BRANCH   1  14
ATOM     11  C   UNL     1     -11.178  12.124  65.061  0.00  0.00    +0.139 A 
ATOM     12  C   UNL     1      -9.993  12.285  65.762  0.00  0.00    +0.038 A 
ATOM     13  C   UNL     1      -9.994  12.903  67.004  0.00  0.00    +0.022 A 
ATOM     14  C   UNL     1     -11.225  13.155  67.563  0.00  0.00    +0.083 A 
ATOM     15  C   UNL     1     -12.254  13.454  66.680  0.00  0.00    +0.022 A 
ATOM     16  C   UNL     1     -12.266  12.900  65.418  0.00  0.00    +0.038 A 
BRANCH  11  18
ATOM     17  C   UNL     1     -10.089  10.651  63.504  0.00  0.00    +0.252 C 
ATOM     18  O   UNL     1     -11.240  11.357  63.900  0.00  0.00    -0.471 OA
ENDBRANCH  11  18
ENDBRANCH   1  14
BRANCH   4  19
ATOM     19  C   UNL     1     -11.968   9.256  71.474  0.00  0.00    +0.054 A 
ATOM     20  C   UNL     1     -10.621   9.002  71.463  0.00  0.00    +0.016 A 
ATOM     21  C   UNL     1     -10.175   7.826  72.053  0.00  0.00    +0.016 A 
ATOM     22  C   UNL     1     -10.949   6.713  71.859  0.00  0.00    +0.054 A 
ATOM     23  C   UNL     1     -12.310   6.869  71.673  0.00  0.00    +0.016 A 
ATOM     24  C   UNL     1     -12.814   8.163  71.619  0.00  0.00    +0.016 A 
BRANCH  22  25
ATOM     25  N   UNL     1     -10.455   5.398  71.978  0.00  0.00    -0.259 N 
ATOM     26  C   UNL     1     -10.067   4.615  70.842  0.00  0.00    +0.229 C 
ATOM     27  O   UNL     1      -9.981   5.165  69.702  0.00  0.00    -0.275 OA
ATOM     28  C   UNL     1      -9.326   3.356  71.167  0.00  0.00    +0.086 C 
ATOM     29  C   UNL     1     -10.028   2.559  72.232  0.00  0.00    +0.011 C 
ATOM     30  C   UNL     1     -10.586   3.424  73.339  0.00  0.00    +0.022 C 
ATOM     31  C   UNL     1     -10.054   4.847  73.270  0.00  0.00    +0.098 C 
ENDBRANCH  22  25
ENDBRANCH   4  19
BRANCH   9  32
ATOM     32  C   UNL     1     -12.839  15.638  71.426  0.00  0.00    +0.303 C 
ATOM     33  O   UNL     1     -14.083  15.717  71.491  0.00  0.00    -0.265 OA
ATOM     34  N   UNL     1     -12.086  16.267  72.464  0.00  0.00    -0.082 NA
ENDBRANCH   9  32
TORSDOF 5
ENDMDL
MODEL 4
REMARK VINA RESULT:      -7.6      5.491     10.835
REMARK  Name = 
REMARK  5 active torsions:
REMARK  status: ('A' for Active; 'I' for Inactive)
REMARK    1  A    between atoms: O_2  and  C_3
REMARK    2  A    between atoms: C_6  and  N_7
REMARK    3  A    between atoms: C_9  and  C_10
REMARK    4  A    between atoms: N_17  and  C_18
REMARK    5  A    between atoms: C_21  and  N_22
REMARK                            x       y       z     vdW  Elec       q    Type
REMARK                         _______ _______ _______ _____ _____    ______ ____
ROOT
ATOM      1  N   UNL     1     -11.635  14.139  68.304  0.00  0.00    -0.225 N 
ATOM      2  C   UNL     1     -10.820  15.147  67.913  0.00  0.00    +0.134 A 
ATOM      3  C   UNL     1     -10.088  16.205  68.619  0.00  0.00    +0.270 C 
ATOM      4  N   UNL     1      -9.597  17.366  67.945  0.00  0.00    -0.254 N 
ATOM      5  C   UNL     1     -10.187  17.628  66.635  0.00  0.00    +0.103 C 
ATOM      6  C   UNL     1     -10.137  16.334  65.832  0.00  0.00    +0.052 C 
ATOM      7  O   UNL     1      -9.893  16.105  69.848  0.00  0.00    -0.268 OA
ATOM      8  C   UNL     1     -10.811  15.220  66.531  0.00  0.00    +0.026 A 
ATOM      9  C   UNL     1     -11.516  14.097  66.120  0.00  0.00    +0.155 A 
ATOM     10  N   UNL     1     -11.919  13.432  67.229  0.00  0.00    -0.161 NA
ENDROOT
BRANCH   1  14
ATOM     11  C   UNL     1     -13.000  14.383  72.178  0.00  0.00    +0.139 A 
ATOM     12  C   UNL     1     -12.636  13.135  71.698  0.00  0.00    +0.038 A 
ATOM     13  C   UNL     1     -12.328  12.965  70.356  0.00  0.00    +0.022 A 
ATOM     14  C   UNL     1     -12.215  14.110  69.603  0.00  0.00    +0.083 A 
ATOM     15  C   UNL     1     -13.044  15.166  69.958  0.00  0.00    +0.022 A 
ATOM     16  C   UNL     1     -13.415  15.343  71.273  0.00  0.00    +0.038 A 
BRANCH  11  18
ATOM     17  C   UNL     1     -12.441  15.705  74.107  0.00  0.00    +0.252 C 
ATOM     18  O   UNL     1     -13.144  14.625  73.542  0.00  0.00    -0.471 OA
ENDBRANCH  11  18
ENDBRANCH   1  14
BRANCH   4  19
ATOM     19  C   UNL     1      -8.297  17.851  68.298  0.00  0.00    +0.054 A 
ATOM     20  C   UNL     1      -8.041  19.162  68.608  0.00  0.00    +0.016 A 
ATOM     21  C   UNL     1      -6.729  19.519  68.896  0.00  0.00    +0.016 A 
ATOM     22  C   UNL     1      -5.755  18.931  68.135  0.00  0.00    +0.054 A 
ATOM     23  C   UNL     1      -5.983  17.672  67.613  0.00  0.00    +0.016 A 
ATOM     24  C   UNL     1      -7.230  17.096  67.827  0.00  0.00    +0.016 A 
BRANCH  22  25
ATOM     25  N   UNL     1      -4.467  19.480  67.970  0.00  0.00    -0.259 N 
ATOM     26  C   UNL     1      -3.452  19.379  68.976  0.00  0.00    +0.229 C 
ATOM     27  O   UNL     1      -3.633  18.619  69.975  0.00  0.00    -0.275 OA
ATOM     28  C   UNL     1      -2.080  19.781  68.532  0.00  0.00    +0.086 C 
ATOM     29  C   UNL     1      -2.093  21.109  67.826  0.00  0.00    +0.011 C 
ATOM     30  C   UNL     1      -3.275  21.266  66.896  0.00  0.00    +0.022 C 
ATOM     31  C   UNL     1      -3.996  19.947  66.668  0.00  0.00    +0.098 C 
ENDBRANCH  22  25
ENDBRANCH   4  19
BRANCH   9  32
ATOM     32  C   UNL     1     -11.950  13.911  64.747  0.00  0.00    +0.303 C 
ATOM     33  O   UNL     1     -12.629  14.764  64.140  0.00  0.00    -0.265 OA
ATOM     34  N   UNL     1     -11.203  12.983  63.958  0.00  0.00    -0.082 NA
ENDBRANCH   9  32
TORSDOF 5
ENDMDL
MODEL 5
REMARK VINA RESULT:      -7.6      5.464     10.440
REMARK  Name = 
REMARK  5 active torsions:
REMARK  status: ('A' for Active; 'I' for Inactive)
REMARK    1  A    between atoms: O_2  and  C_3
REMARK    2  A    between atoms: C_6  and  N_7
REMARK    3  A    between atoms: C_9  and  C_10
REMARK    4  A    between atoms: N_17  and  C_18
REMARK    5  A    between atoms: C_21  and  N_22
REMARK                            x       y       z     vdW  Elec       q    Type
REMARK                         _______ _______ _______ _____ _____    ______ ____
ROOT
ATOM      1  N   UNL     1     -11.646  13.958  68.383  0.00  0.00    -0.225 N 
ATOM      2  C   UNL     1     -10.789  14.900  67.925  0.00  0.00    +0.134 A 
ATOM      3  C   UNL     1      -9.993  15.958  68.561  0.00  0.00    +0.270 C 
ATOM      4  N   UNL     1      -9.456  17.053  67.817  0.00  0.00    -0.254 N 
ATOM      5  C   UNL     1     -10.054  17.272  66.502  0.00  0.00    +0.103 C 
ATOM      6  C   UNL     1     -10.081  15.935  65.772  0.00  0.00    +0.052 C 
ATOM      7  O   UNL     1      -9.783  15.916  69.791  0.00  0.00    -0.268 OA
ATOM      8  C   UNL     1     -10.798  14.896  66.542  0.00  0.00    +0.026 A 
ATOM      9  C   UNL     1     -11.565  13.790  66.204  0.00  0.00    +0.155 A 
ATOM     10  N   UNL     1     -11.982  13.208  67.354  0.00  0.00    -0.161 NA
ENDROOT
BRANCH   1  14
ATOM     11  C   UNL     1     -12.919  14.467  72.263  0.00  0.00    +0.139 A 
ATOM     12  C   UNL     1     -12.686  13.173  71.824  0.00  0.00    +0.038 A 
ATOM     13  C   UNL     1     -12.417  12.929  70.485  0.00  0.00    +0.022 A 
ATOM     14  C   UNL     1     -12.206  14.031  69.689  0.00  0.00    +0.083 A 
ATOM     15  C   UNL     1     -12.923  15.174  70.017  0.00  0.00    +0.022 A 
ATOM     16  C   UNL     1     -13.253  15.431  71.330  0.00  0.00    +0.038 A 
BRANCH  11  18
ATOM     17  C   UNL     1     -12.541  16.016  74.063  0.00  0.00    +0.252 C 
ATOM     18  O   UNL     1     -13.017  14.768  73.619  0.00  0.00    -0.471 OA
ENDBRANCH  11  18
ENDBRANCH   1  14
BRANCH   4  19
ATOM     19  C   UNL     1      -8.128  17.491  68.124  0.00  0.00    +0.054 A 
ATOM     20  C   UNL     1      -7.268  16.782  68.923  0.00  0.00    +0.016 A 
ATOM     21  C   UNL     1      -6.017  17.331  69.181  0.00  0.00    +0.016 A 
ATOM     22  C   UNL     1      -5.974  18.684  69.385  0.00  0.00    +0.054 A 
ATOM     23  C   UNL     1      -6.916  19.484  68.768  0.00  0.00    +0.016 A 
ATOM     24  C   UNL     1      -7.913  18.860  68.027  0.00  0.00    +0.016 A 
BRANCH  22  25
ATOM     25  N   UNL     1      -4.929  19.327  70.080  0.00  0.00    -0.259 N 
ATOM     26  C   UNL     1      -5.171  20.291  71.113  0.00  0.00    +0.229 C 
ATOM     27  O   UNL     1      -6.348  20.449  71.560  0.00  0.00    -0.275 OA
ATOM     28  C   UNL     1      -3.967  20.671  71.917  0.00  0.00    +0.086 C 
ATOM     29  C   UNL     1      -2.799  21.019  71.034  0.00  0.00    +0.011 C 
ATOM     30  C   UNL     1      -2.665  20.092  69.847  0.00  0.00    +0.022 C 
ATOM     31  C   UNL     1      -3.548  18.861  69.987  0.00  0.00    +0.098 C 
ENDBRANCH  22  25
ENDBRANCH   4  19
BRANCH   9  32
ATOM     32  C   UNL     1     -12.030  13.549  64.849  0.00  0.00    +0.303 C 
ATOM     33  O   UNL     1     -12.777  14.348  64.249  0.00  0.00    -0.265 OA
ATOM     34  N   UNL     1     -11.253  12.652  64.054  0.00  0.00    -0.082 NA
ENDBRANCH   9  32
TORSDOF 5
ENDMDL
MODEL 6
REMARK VINA RESULT:      -7.4      6.250     11.511
REMARK  Name = 
REMARK  5 active torsions:
REMARK  status: ('A' for Active; 'I' for Inactive)
REMARK    1  A    between atoms: O_2  and  C_3
REMARK    2  A    between atoms: C_6  and  N_7
REMARK    3  A    between atoms: C_9  and  C_10
REMARK    4  A    between atoms: N_17  and  C_18
REMARK    5  A    between atoms: C_21  and  N_22
REMARK                            x       y       z     vdW  Elec       q    Type
REMARK                         _______ _______ _______ _____ _____    ______ ____
ROOT
ATOM      1  N   UNL     1     -11.499  14.293  68.516  0.00  0.00    -0.225 N 
ATOM      2  C   UNL     1     -10.905  15.144  67.647  0.00  0.00    +0.134 A 
ATOM      3  C   UNL     1     -10.327  16.488  67.763  0.00  0.00    +0.270 C 
ATOM      4  N   UNL     1     -10.097  17.316  66.621  0.00  0.00    -0.254 N 
ATOM      5  C   UNL     1     -10.813  16.926  65.409  0.00  0.00    +0.103 C 
ATOM      6  C   UNL     1     -10.589  15.435  65.193  0.00  0.00    +0.052 C 
ATOM      7  O   UNL     1     -10.033  16.937  68.891  0.00  0.00    -0.268 OA
ATOM      8  C   UNL     1     -11.004  14.634  66.365  0.00  0.00    +0.026 A 
ATOM      9  C   UNL     1     -11.524  13.359  66.538  0.00  0.00    +0.155 A 
ATOM     10  N   UNL     1     -11.725  13.170  67.864  0.00  0.00    -0.161 NA
ENDROOT
BRANCH   1  14
ATOM     11  C   UNL     1     -12.772  15.131  72.338  0.00  0.00    +0.139 A 
ATOM     12  C   UNL     1     -13.658  15.358  71.297  0.00  0.00    +0.038 A 
ATOM     13  C   UNL     1     -13.231  15.252  69.981  0.00  0.00    +0.022 A 
ATOM     14  C   UNL     1     -11.974  14.731  69.783  0.00  0.00    +0.083 A 
ATOM     15  C   UNL     1     -11.028  15.015  70.759  0.00  0.00    +0.022 A 
ATOM     16  C   UNL     1     -11.416  15.176  72.072  0.00  0.00    +0.038 A 
BRANCH  11  18
ATOM     17  C   UNL     1     -12.477  15.752  74.642  0.00  0.00    +0.252 C 
ATOM     18  O   UNL     1     -13.204  15.056  73.660  0.00  0.00    -0.471 OA
ENDBRANCH  11  18
ENDBRANCH   1  14
BRANCH   4  19
ATOM     19  C   UNL     1      -8.883  18.074  66.570  0.00  0.00    +0.054 A 
ATOM     20  C   UNL     1      -8.841  19.407  66.254  0.00  0.00    +0.016 A 
ATOM     21  C   UNL     1      -7.597  20.024  66.197  0.00  0.00    +0.016 A 
ATOM     22  C   UNL     1      -6.577  19.293  65.650  0.00  0.00    +0.054 A 
ATOM     23  C   UNL     1      -6.612  17.915  65.751  0.00  0.00    +0.016 A 
ATOM     24  C   UNL     1      -7.728  17.336  66.342  0.00  0.00    +0.016 A 
BRANCH  22  25
ATOM     25  N   UNL     1      -5.413  19.876  65.109  0.00  0.00    -0.259 N 
ATOM     26  C   UNL     1      -4.361  20.400  65.930  0.00  0.00    +0.229 C 
ATOM     27  O   UNL     1      -4.371  20.178  67.178  0.00  0.00    -0.275 OA
ATOM     28  C   UNL     1      -3.098  20.736  65.200  0.00  0.00    +0.086 C 
ATOM     29  C   UNL     1      -3.371  21.564  63.973  0.00  0.00    +0.011 C 
ATOM     30  C   UNL     1      -4.593  21.101  63.213  0.00  0.00    +0.022 C 
ATOM     31  C   UNL     1      -5.078  19.742  63.693  0.00  0.00    +0.098 C 
ENDBRANCH  22  25
ENDBRANCH   4  19
BRANCH   9  32
ATOM     32  C   UNL     1     -12.011  12.560  65.427  0.00  0.00    +0.303 C 
ATOM     33  O   UNL     1     -13.157  12.705  64.953  0.00  0.00    -0.265 OA
ATOM     34  N   UNL     1     -11.024  11.958  64.588  0.00  0.00    -0.082 NA
ENDBRANCH   9  32
TORSDOF 5
ENDMDL
MODEL 7
REMARK VINA RESULT:      -7.3      3.388      5.714
REMARK  Name = 
REMARK  5 active torsions:
REMARK  status: ('A' for Active; 'I' for Inactive)
REMARK    1  A    between atoms: O_2  and  C_3
REMARK    2  A    between atoms: C_6  and  N_7
REMARK    3  A    between atoms: C_9  and  C_10
REMARK    4  A    between atoms: N_17  and  C_18
REMARK    5  A    between atoms: C_21  and  N_22
REMARK                            x       y       z     vdW  Elec       q    Type
REMARK                         _______ _______ _______ _____ _____    ______ ____
ROOT
ATOM      1  N   UNL     1     -11.923  13.388  67.675  0.00  0.00    -0.225 N 
ATOM      2  C   UNL     1     -11.245  12.287  67.277  0.00  0.00    +0.134 A 
ATOM      3  C   UNL     1     -10.430  11.280  67.968  0.00  0.00    +0.270 C 
ATOM      4  N   UNL     1      -9.522  10.428  67.266  0.00  0.00    -0.254 N 
ATOM      5  C   UNL     1      -9.164  10.867  65.919  0.00  0.00    +0.103 C 
ATOM      6  C   UNL     1     -10.452  11.203  65.179  0.00  0.00    +0.052 C 
ATOM      7  O   UNL     1     -10.516  11.162  69.208  0.00  0.00    -0.268 OA
ATOM      8  C   UNL     1     -11.258  12.214  65.896  0.00  0.00    +0.026 A 
ATOM      9  C   UNL     1     -12.125  13.224  65.503  0.00  0.00    +0.155 A 
ATOM     10  N   UNL     1     -12.566  13.848  66.622  0.00  0.00    -0.161 NA
ENDROOT
BRANCH   1  14
ATOM     11  C   UNL     1     -11.677  15.329  71.296  0.00  0.00    +0.139 A 
ATOM     12  C   UNL     1     -10.630  15.492  70.402  0.00  0.00    +0.038 A 
ATOM     13  C   UNL     1     -10.579  14.735  69.241  0.00  0.00    +0.022 A 
ATOM     14  C   UNL     1     -11.694  13.987  68.946  0.00  0.00    +0.083 A 
ATOM     15  C   UNL     1     -12.401  13.481  70.029  0.00  0.00    +0.022 A 
ATOM     16  C   UNL     1     -12.438  14.177  71.217  0.00  0.00    +0.038 A 
BRANCH  11  18
ATOM     17  C   UNL     1     -12.417  15.674  73.557  0.00  0.00    +0.252 C 
ATOM     18  O   UNL     1     -11.853  16.190  72.377  0.00  0.00    -0.471 OA
ENDBRANCH  11  18
ENDBRANCH   1  14
BRANCH   4  19
ATOM     19  C   UNL     1      -9.449   9.052  67.656  0.00  0.00    +0.054 A 
ATOM     20  C   UNL     1      -8.273   8.422  67.972  0.00  0.00    +0.016 A 
ATOM     21  C   UNL     1      -8.326   7.071  68.297  0.00  0.00    +0.016 A 
ATOM     22  C   UNL     1      -9.189   6.300  67.566  0.00  0.00    +0.054 A 
ATOM     23  C   UNL     1     -10.326   6.883  67.039  0.00  0.00    +0.016 A 
ATOM     24  C   UNL     1     -10.495   8.251  67.218  0.00  0.00    +0.016 A 
BRANCH  22  25
ATOM     25  N   UNL     1      -9.056   4.902  67.438  0.00  0.00    -0.259 N 
ATOM     26  C   UNL     1      -9.397   3.996  68.495  0.00  0.00    +0.229 C 
ATOM     27  O   UNL     1     -10.012   4.428  69.517  0.00  0.00    -0.275 OA
ATOM     28  C   UNL     1      -9.445   2.553  68.099  0.00  0.00    +0.086 C 
ATOM     29  C   UNL     1      -8.214   2.147  67.335  0.00  0.00    +0.011 C 
ATOM     30  C   UNL     1      -7.767   3.197  66.344  0.00  0.00    +0.022 C 
ATOM     31  C   UNL     1      -8.823   4.272  66.141  0.00  0.00    +0.098 C 
ENDBRANCH  22  25
ENDBRANCH   4  19
BRANCH   9  32
ATOM     32  C   UNL     1     -12.245  13.654  64.122  0.00  0.00    +0.303 C 
ATOM     33  O   UNL     1     -12.517  12.861  63.197  0.00  0.00    -0.265 OA
ATOM     34  N   UNL     1     -12.522  15.038  63.901  0.00  0.00    -0.082 NA
ENDBRANCH   9  32
TORSDOF 5
ENDMDL
MODEL 8
REMARK VINA RESULT:      -7.3      2.371      5.003
REMARK  Name = 
REMARK  5 active torsions:
REMARK  status: ('A' for Active; 'I' for Inactive)
REMARK    1  A    between atoms: O_2  and  C_3
REMARK    2  A    between atoms: C_6  and  N_7
REMARK    3  A    between atoms: C_9  and  C_10
REMARK    4  A    between atoms: N_17  and  C_18
REMARK    5  A    between atoms: C_21  and  N_22
REMARK                            x       y       z     vdW  Elec       q    Type
REMARK                         _______ _______ _______ _____ _____    ______ ____
ROOT
ATOM      1  N   UNL     1     -11.920  13.407  67.662  0.00  0.00    -0.225 N 
ATOM      2  C   UNL     1     -11.256  12.293  67.278  0.00  0.00    +0.134 A 
ATOM      3  C   UNL     1     -10.451  11.286  67.980  0.00  0.00    +0.270 C 
ATOM      4  N   UNL     1      -9.554  10.414  67.289  0.00  0.00    -0.254 N 
ATOM      5  C   UNL     1      -9.193  10.831  65.936  0.00  0.00    +0.103 C 
ATOM      6  C   UNL     1     -10.478  11.172  65.193  0.00  0.00    +0.052 C 
ATOM      7  O   UNL     1     -10.537  11.186  69.222  0.00  0.00    -0.268 OA
ATOM      8  C   UNL     1     -11.271  12.202  65.897  0.00  0.00    +0.026 A 
ATOM      9  C   UNL     1     -12.127  13.217  65.493  0.00  0.00    +0.155 A 
ATOM     10  N   UNL     1     -12.560  13.861  66.604  0.00  0.00    -0.161 NA
ENDROOT
BRANCH   1  14
ATOM     11  C   UNL     1     -11.650  15.388  71.259  0.00  0.00    +0.139 A 
ATOM     12  C   UNL     1     -10.609  15.541  70.357  0.00  0.00    +0.038 A 
ATOM     13  C   UNL     1     -10.566  14.772  69.203  0.00  0.00    +0.022 A 
ATOM     14  C   UNL     1     -11.683  14.020  68.924  0.00  0.00    +0.083 A 
ATOM     15  C   UNL     1     -12.382  13.525  70.018  0.00  0.00    +0.022 A 
ATOM     16  C   UNL     1     -12.411  14.235  71.199  0.00  0.00    +0.038 A 
BRANCH  11  18
ATOM     17  C   UNL     1     -12.575  15.825  73.435  0.00  0.00    +0.252 C 
ATOM     18  O   UNL     1     -11.818  16.260  72.332  0.00  0.00    -0.471 OA
ENDBRANCH  11  18
ENDBRANCH   1  14
BRANCH   4  19
ATOM     19  C   UNL     1      -9.496   9.043  67.697  0.00  0.00    +0.054 A 
ATOM     20  C   UNL     1     -10.589   8.216  67.712  0.00  0.00    +0.016 A 
ATOM     21  C   UNL     1     -10.414   6.914  68.168  0.00  0.00    +0.016 A 
ATOM     22  C   UNL     1      -9.580   6.750  69.241  0.00  0.00    +0.054 A 
ATOM     23  C   UNL     1      -8.544   7.645  69.428  0.00  0.00    +0.016 A 
ATOM     24  C   UNL     1      -8.448   8.718  68.550  0.00  0.00    +0.016 A 
BRANCH  22  25
ATOM     25  N   UNL     1      -9.633   5.628  70.095  0.00  0.00    -0.259 N 
ATOM     26  C   UNL     1     -10.116   5.709  71.442  0.00  0.00    +0.229 C 
ATOM     27  O   UNL     1     -10.692   6.767  71.839  0.00  0.00    -0.275 OA
ATOM     28  C   UNL     1     -10.348   4.389  72.109  0.00  0.00    +0.086 C 
ATOM     29  C   UNL     1      -9.164   3.473  71.950  0.00  0.00    +0.011 C 
ATOM     30  C   UNL     1      -8.557   3.535  70.567  0.00  0.00    +0.022 C 
ATOM     31  C   UNL     1      -9.456   4.271  69.586  0.00  0.00    +0.098 C 
ENDBRANCH  22  25
ENDBRANCH   4  19
BRANCH   9  32
ATOM     32  C   UNL     1     -12.244  13.630  64.106  0.00  0.00    +0.303 C 
ATOM     33  O   UNL     1     -12.544  12.831  63.195  0.00  0.00    -0.265 OA
ATOM     34  N   UNL     1     -12.483  15.018  63.867  0.00  0.00    -0.082 NA
ENDBRANCH   9  32
TORSDOF 5
ENDMDL
MODEL 9
REMARK VINA RESULT:      -7.3      4.835     10.659
REMARK  Name = 
REMARK  5 active torsions:
REMARK  status: ('A' for Active; 'I' for Inactive)
REMARK    1  A    between atoms: O_2  and  C_3
REMARK    2  A    between atoms: C_6  and  N_7
REMARK    3  A    between atoms: C_9  and  C_10
REMARK    4  A    between atoms: N_17  and  C_18
REMARK    5  A    between atoms: C_21  and  N_22
REMARK                            x       y       z     vdW  Elec       q    Type
REMARK                         _______ _______ _______ _____ _____    ______ ____
ROOT
ATOM      1  N   UNL     1     -10.980  12.224  67.122  0.00  0.00    -0.225 N 
ATOM      2  C   UNL     1     -10.533  13.490  66.950  0.00  0.00    +0.134 A 
ATOM      3  C   UNL     1      -9.779  14.433  67.784  0.00  0.00    +0.270 C 
ATOM      4  N   UNL     1      -9.755  15.836  67.511  0.00  0.00    -0.254 N 
ATOM      5  C   UNL     1     -10.809  16.320  66.623  0.00  0.00    +0.103 C 
ATOM      6  C   UNL     1     -10.841  15.415  65.398  0.00  0.00    +0.052 C 
ATOM      7  O   UNL     1      -9.143  14.010  68.772  0.00  0.00    -0.268 OA
ATOM      8  C   UNL     1     -11.030  13.994  65.761  0.00  0.00    +0.026 A 
ATOM      9  C   UNL     1     -11.645  12.908  65.154  0.00  0.00    +0.155 A 
ATOM     10  N   UNL     1     -11.510  11.842  65.979  0.00  0.00    -0.161 NA
ENDROOT
BRANCH   1  14
ATOM     11  C   UNL     1     -11.282  10.093  70.630  0.00  0.00    +0.139 A 
ATOM     12  C   UNL     1     -12.023  11.259  70.515  0.00  0.00    +0.038 A 
ATOM     13  C   UNL     1     -11.836  12.102  69.429  0.00  0.00    +0.022 A 
ATOM     14  C   UNL     1     -11.044  11.624  68.411  0.00  0.00    +0.083 A 
ATOM     15  C   UNL     1      -9.998  10.791  68.783  0.00  0.00    +0.022 A 
ATOM     16  C   UNL     1     -10.124   9.972  69.885  0.00  0.00    +0.038 A 
BRANCH  11  18
ATOM     17  C   UNL     1     -12.869   9.096  72.136  0.00  0.00    +0.252 C 
ATOM     18  O   UNL     1     -11.566   9.143  71.608  0.00  0.00    -0.471 OA
ENDBRANCH  11  18
ENDBRANCH   1  14
BRANCH   4  19
ATOM     19  C   UNL     1      -8.512  16.531  67.656  0.00  0.00    +0.054 A 
ATOM     20  C   UNL     1      -8.338  17.593  68.505  0.00  0.00    +0.016 A 
ATOM     21  C   UNL     1      -7.093  18.211  68.528  0.00  0.00    +0.016 A 
ATOM     22  C   UNL     1      -6.461  18.357  67.322  0.00  0.00    +0.054 A 
ATOM     23  C   UNL     1      -6.708  17.436  66.321  0.00  0.00    +0.016 A 
ATOM     24  C   UNL     1      -7.650  16.445  66.569  0.00  0.00    +0.016 A 
BRANCH  22  25
ATOM     25  N   UNL     1      -5.458  19.319  67.087  0.00  0.00    -0.259 N 
ATOM     26  C   UNL     1      -5.758  20.694  66.814  0.00  0.00    +0.229 C 
ATOM     27  O   UNL     1      -6.944  21.118  66.965  0.00  0.00    -0.275 OA
ATOM     28  C   UNL     1      -4.581  21.617  66.852  0.00  0.00    +0.086 C 
ATOM     29  C   UNL     1      -3.431  21.082  66.043  0.00  0.00    +0.011 C 
ATOM     30  C   UNL     1      -3.239  19.592  66.210  0.00  0.00    +0.022 C 
ATOM     31  C   UNL     1      -4.052  19.043  67.373  0.00  0.00    +0.098 C 
ENDBRANCH  22  25
ENDBRANCH   4  19
BRANCH   9  32
ATOM     32  C   UNL     1     -12.505  13.049  63.992  0.00  0.00    +0.303 C 
ATOM     33  O   UNL     1     -12.544  14.097  63.315  0.00  0.00    -0.265 OA
ATOM     34  N   UNL     1     -12.933  11.842  63.361  0.00  0.00    -0.082 NA
ENDBRANCH   9  32
TORSDOF 5
ENDMDL
