MODEL 1
REMARK VINA RESULT:      -6.3      0.000      0.000
REMARK  Name = 
REMARK  8 active torsions:
REMARK  status: ('A' for Active; 'I' for Inactive)
REMARK    1  A    between atoms: C_2  and  C_3
REMARK    2  A    between atoms: C_3  and  O_4
REMARK    3  A    between atoms: O_4  and  C_5
REMARK    4  A    between atoms: C_8  and  C_9
REMARK    5  A    between atoms: C_9  and  C_20
REMARK    6  A    between atoms: C_10  and  C_11
REMARK    7  A    between atoms: C_10  and  C_14
REMARK    8  A    between atoms: C_11  and  C_12
REMARK                            x       y       z     vdW  Elec       q    Type
REMARK                         _______ _______ _______ _____ _____    ______ ____
ROOT
ATOM      1  C   UNL     1     -11.870  14.264  69.522  0.00  0.00    -0.004 C 
ATOM      2  C   UNL     1     -11.856  12.933  69.428  0.00  0.00    -0.021 C 
ENDROOT
BRANCH   2   3
ATOM      3  C   UNL     1     -11.196  12.276  68.292  0.00  0.00    -0.004 A 
ATOM      4  C   UNL     1     -11.737  12.376  67.018  0.00  0.00    -0.000 A 
ATOM      5  C   UNL     1     -10.978  12.165  65.878  0.00  0.00    -0.000 A 
ATOM      6  C   UNL     1      -9.700  11.656  66.068  0.00  0.00    -0.000 A 
ATOM      7  C   UNL     1      -9.031  11.959  67.238  0.00  0.00    -0.000 A 
ATOM      8  C   UNL     1      -9.816  12.138  68.364  0.00  0.00    -0.000 A 
ENDBRANCH   2   3
BRANCH   1   9
ATOM      9  C   UNL     1     -12.376  14.890  70.745  0.00  0.00    -0.000 A 
ATOM     10  C   UNL     1     -13.730  15.183  70.845  0.00  0.00    -0.000 A 
ATOM     11  C   UNL     1     -14.214  15.344  72.136  0.00  0.00    -0.000 A 
ATOM     12  C   UNL     1     -13.334  15.673  73.147  0.00  0.00    -0.000 A 
ATOM     13  C   UNL     1     -12.013  15.929  72.820  0.00  0.00    -0.000 A 
ATOM     14  C   UNL     1     -11.544  15.667  71.538  0.00  0.00    -0.000 A 
ENDBRANCH   1   9
BRANCH   1  18
ATOM     15  C   UNL     1      -9.156  16.125  66.861  0.00  0.00    +0.139 A 
ATOM     16  C   UNL     1      -8.804  15.989  68.196  0.00  0.00    +0.037 A 
ATOM     17  C   UNL     1      -9.644  15.298  69.061  0.00  0.00    +0.003 A 
ATOM     18  C   UNL     1     -10.945  15.039  68.706  0.00  0.00    -0.000 A 
ATOM     19  C   UNL     1     -11.423  15.694  67.580  0.00  0.00    +0.003 A 
ATOM     20  C   UNL     1     -10.515  16.015  66.593  0.00  0.00    +0.037 A 
BRANCH  15  21
ATOM     21  O   UNL     1      -8.359  16.852  65.977  0.00  0.00    -0.473 OA
BRANCH  21  22
ATOM     22  C   UNL     1      -7.752  18.057  66.383  0.00  0.00    +0.241 C 
BRANCH  22  24
ATOM     23  O   UNL     1      -9.115  19.621  67.603  0.00  0.00    -0.216 OA
ATOM     24  C   UNL     1      -8.702  19.236  66.325  0.00  0.00    +0.229 C 
ENDBRANCH  22  24
ENDBRANCH  21  22
ENDBRANCH  15  21
ENDBRANCH   1  18
BRANCH   2  25
ATOM     25  C   UNL     1     -12.081  12.082  70.637  0.00  0.00    +0.044 C 
BRANCH  25  26
ATOM     26  C   UNL     1     -12.408  10.675  70.155  0.00  0.00    +0.100 C 
ATOM     27 CL   UNL     1     -11.165   9.543  70.767  0.00  0.00    -0.113 Cl
ENDBRANCH  25  26
ENDBRANCH   2  25
TORSDOF 8
ENDMDL
MODEL 2
REMARK VINA RESULT:      -6.2      2.811      5.822
REMARK  Name = 
REMARK  8 active torsions:
REMARK  status: ('A' for Active; 'I' for Inactive)
REMARK    1  A    between atoms: C_2  and  C_3
REMARK    2  A    between atoms: C_3  and  O_4
REMARK    3  A    between atoms: O_4  and  C_5
REMARK    4  A    between atoms: C_8  and  C_9
REMARK    5  A    between atoms: C_9  and  C_20
REMARK    6  A    between atoms: C_10  and  C_11
REMARK    7  A    between atoms: C_10  and  C_14
REMARK    8  A    between atoms: C_11  and  C_12
REMARK                            x       y       z     vdW  Elec       q    Type
REMARK                         _______ _______ _______ _____ _____    ______ ____
ROOT
ATOM      1  C   UNL     1     -10.523  11.951  67.290  0.00  0.00    -0.004 C 
ATOM      2  C   UNL     1     -10.325  10.676  67.628  0.00  0.00    -0.021 C 
ENDROOT
BRANCH   2   3
ATOM      3  C   UNL     1      -9.974  10.319  69.009  0.00  0.00    -0.004 A 
ATOM      4  C   UNL     1     -10.830   9.532  69.766  0.00  0.00    -0.000 A 
ATOM      5  C   UNL     1     -10.392   8.821  70.872  0.00  0.00    -0.000 A 
ATOM      6  C   UNL     1      -9.101   9.086  71.308  0.00  0.00    -0.000 A 
ATOM      7  C   UNL     1      -8.155   9.482  70.383  0.00  0.00    -0.000 A 
ATOM      8  C   UNL     1      -8.621  10.213  69.305  0.00  0.00    -0.000 A 
ENDBRANCH   2   3
BRANCH   1   9
ATOM      9  C   UNL     1     -11.042  12.266  65.959  0.00  0.00    -0.000 A 
ATOM     10  C   UNL     1     -10.158  12.355  64.891  0.00  0.00    -0.000 A 
ATOM     11  C   UNL     1     -10.723  12.208  63.632  0.00  0.00    -0.000 A 
ATOM     12  C   UNL     1     -12.071  12.456  63.467  0.00  0.00    -0.000 A 
ATOM     13  C   UNL     1     -12.793  12.940  64.545  0.00  0.00    -0.000 A 
ATOM     14  C   UNL     1     -12.220  12.985  65.811  0.00  0.00    -0.000 A 
ENDBRANCH   1   9
BRANCH   1  18
ATOM     15  C   UNL     1     -11.505  14.986  70.073  0.00  0.00    +0.139 A 
ATOM     16  C   UNL     1     -10.222  14.945  69.545  0.00  0.00    +0.037 A 
ATOM     17  C   UNL     1      -9.913  14.012  68.562  0.00  0.00    +0.003 A 
ATOM     18  C   UNL     1     -10.736  12.935  68.343  0.00  0.00    -0.000 A 
ATOM     19  C   UNL     1     -11.728  12.710  69.288  0.00  0.00    +0.003 A 
ATOM     20  C   UNL     1     -12.227  13.804  69.963  0.00  0.00    +0.037 A 
BRANCH  15  21
ATOM     21  O   UNL     1     -11.835  15.877  71.092  0.00  0.00    -0.473 OA
BRANCH  21  22
ATOM     22  C   UNL     1     -11.939  15.436  72.426  0.00  0.00    +0.241 C 
BRANCH  22  24
ATOM     23  O   UNL     1     -14.297  15.825  72.143  0.00  0.00    -0.216 OA
ATOM     24  C   UNL     1     -13.252  15.833  73.070  0.00  0.00    +0.229 C 
ENDBRANCH  22  24
ENDBRANCH  21  22
ENDBRANCH  15  21
ENDBRANCH   1  18
BRANCH   2  25
ATOM     25  C   UNL     1     -10.881   9.571  66.788  0.00  0.00    +0.044 C 
BRANCH  25  26
ATOM     26  C   UNL     1      -9.704   8.800  66.203  0.00  0.00    +0.100 C 
ATOM     27 CL   UNL     1      -9.529   7.248  67.075  0.00  0.00    -0.113 Cl
ENDBRANCH  25  26
ENDBRANCH   2  25
TORSDOF 8
ENDMDL
MODEL 3
REMARK VINA RESULT:      -6.1      0.895      1.294
REMARK  Name = 
REMARK  8 active torsions:
REMARK  status: ('A' for Active; 'I' for Inactive)
REMARK    1  A    between atoms: C_2  and  C_3
REMARK    2  A    between atoms: C_3  and  O_4
REMARK    3  A    between atoms: O_4  and  C_5
REMARK    4  A    between atoms: C_8  and  C_9
REMARK    5  A    between atoms: C_9  and  C_20
REMARK    6  A    between atoms: C_10  and  C_11
REMARK    7  A    between atoms: C_10  and  C_14
REMARK    8  A    between atoms: C_11  and  C_12
REMARK                            x       y       z     vdW  Elec       q    Type
REMARK                         _______ _______ _______ _____ _____    ______ ____
ROOT
ATOM      1  C   UNL     1     -11.599  14.441  69.538  0.00  0.00    -0.004 C 
ATOM      2  C   UNL     1     -11.516  13.142  69.244  0.00  0.00    -0.021 C 
ENDROOT
BRANCH   2   3
ATOM      3  C   UNL     1     -10.774  12.695  68.059  0.00  0.00    -0.004 A 
ATOM      4  C   UNL     1      -9.674  11.860  68.198  0.00  0.00    -0.000 A 
ATOM      5  C   UNL     1      -9.207  11.077  67.154  0.00  0.00    -0.000 A 
ATOM      6  C   UNL     1      -9.767  11.311  65.905  0.00  0.00    -0.000 A 
ATOM      7  C   UNL     1     -11.069  11.766  65.834  0.00  0.00    -0.000 A 
ATOM      8  C   UNL     1     -11.495  12.567  66.879  0.00  0.00    -0.000 A 
ENDBRANCH   2   3
BRANCH   1   9
ATOM      9  C   UNL     1     -12.190  14.850  70.813  0.00  0.00    -0.000 A 
ATOM     10  C   UNL     1     -13.534  15.199  70.856  0.00  0.00    -0.000 A 
ATOM     11  C   UNL     1     -14.129  15.138  72.108  0.00  0.00    -0.000 A 
ATOM     12  C   UNL     1     -13.334  15.215  73.234  0.00  0.00    -0.000 A 
ATOM     13  C   UNL     1     -11.979  15.451  73.074  0.00  0.00    -0.000 A 
ATOM     14  C   UNL     1     -11.404  15.411  71.809  0.00  0.00    -0.000 A 
ENDBRANCH   1   9
BRANCH   1  18
ATOM     15  C   UNL     1      -8.949  16.852  67.284  0.00  0.00    +0.139 A 
ATOM     16  C   UNL     1      -8.510  16.305  68.482  0.00  0.00    +0.037 A 
ATOM     17  C   UNL     1      -9.336  15.437  69.184  0.00  0.00    +0.003 A 
ATOM     18  C   UNL     1     -10.678  15.370  68.898  0.00  0.00    -0.000 A 
ATOM     19  C   UNL     1     -11.184  16.357  68.063  0.00  0.00    +0.003 A 
ATOM     20  C   UNL     1     -10.329  16.904  67.129  0.00  0.00    +0.037 A 
BRANCH  15  21
ATOM     21  O   UNL     1      -8.164  17.762  66.579  0.00  0.00    -0.473 OA
BRANCH  21  22
ATOM     22  C   UNL     1      -8.458  19.139  66.608  0.00  0.00    +0.241 C 
BRANCH  22  24
ATOM     23  O   UNL     1      -7.283  21.134  67.267  0.00  0.00    -0.216 OA
ATOM     24  C   UNL     1      -7.705  19.873  67.699  0.00  0.00    +0.229 C 
ENDBRANCH  22  24
ENDBRANCH  21  22
ENDBRANCH  15  21
ENDBRANCH   1  18
BRANCH   2  25
ATOM     25  C   UNL     1     -11.753  12.107  70.298  0.00  0.00    +0.044 C 
BRANCH  25  26
ATOM     26  C   UNL     1     -12.591  10.998  69.674  0.00  0.00    +0.100 C 
ATOM     27 CL   UNL     1     -13.245   9.958  70.974  0.00  0.00    -0.113 Cl
ENDBRANCH  25  26
ENDBRANCH   2  25
TORSDOF 8
ENDMDL
MODEL 4
REMARK VINA RESULT:      -6.0      3.932      7.807
REMARK  Name = 
REMARK  8 active torsions:
REMARK  status: ('A' for Active; 'I' for Inactive)
REMARK    1  A    between atoms: C_2  and  C_3
REMARK    2  A    between atoms: C_3  and  O_4
REMARK    3  A    between atoms: O_4  and  C_5
REMARK    4  A    between atoms: C_8  and  C_9
REMARK    5  A    between atoms: C_9  and  C_20
REMARK    6  A    between atoms: C_10  and  C_11
REMARK    7  A    between atoms: C_10  and  C_14
REMARK    8  A    between atoms: C_11  and  C_12
REMARK                            x       y       z     vdW  Elec       q    Type
REMARK                         _______ _______ _______ _____ _____    ______ ____
ROOT
ATOM      1  C   UNL     1     -11.719  13.002  69.206  0.00  0.00    -0.004 C 
ATOM      2  C   UNL     1     -11.695  14.240  69.702  0.00  0.00    -0.021 C 
ENDROOT
BRANCH   2   3
ATOM      3  C   UNL     1     -12.249  14.517  71.034  0.00  0.00    -0.004 A 
ATOM      4  C   UNL     1     -11.444  15.065  72.024  0.00  0.00    -0.000 A 
ATOM      5  C   UNL     1     -11.974  15.730  73.118  0.00  0.00    -0.000 A 
ATOM      6  C   UNL     1     -13.350  15.656  73.283  0.00  0.00    -0.000 A 
ATOM      7  C   UNL     1     -14.148  15.523  72.164  0.00  0.00    -0.000 A 
ATOM      8  C   UNL     1     -13.600  14.830  71.099  0.00  0.00    -0.000 A 
ENDBRANCH   2   3
BRANCH   1   9
ATOM      9  C   UNL     1     -11.008  12.716  67.959  0.00  0.00    -0.000 A 
ATOM     10  C   UNL     1     -11.719  12.234  66.868  0.00  0.00    -0.000 A 
ATOM     11  C   UNL     1     -11.112  12.407  65.633  0.00  0.00    -0.000 A 
ATOM     12  C   UNL     1      -9.744  12.578  65.574  0.00  0.00    -0.000 A 
ATOM     13  C   UNL     1      -9.012  12.471  66.745  0.00  0.00    -0.000 A 
ATOM     14  C   UNL     1      -9.658  12.392  67.973  0.00  0.00    -0.000 A 
ENDBRANCH   1   9
BRANCH   1  18
ATOM     15  C   UNL     1     -12.632   9.527  71.444  0.00  0.00    +0.139 A 
ATOM     16  C   UNL     1     -13.162  10.745  71.845  0.00  0.00    +0.037 A 
ATOM     17  C   UNL     1     -12.947  11.877  71.067  0.00  0.00    +0.003 A 
ATOM     18  C   UNL     1     -11.964  11.884  70.108  0.00  0.00    -0.000 A 
ATOM     19  C   UNL     1     -11.073  10.821  70.125  0.00  0.00    +0.003 A 
ATOM     20  C   UNL     1     -11.531   9.610  70.600  0.00  0.00    +0.037 A 
BRANCH  15  21
ATOM     21  O   UNL     1     -12.789   8.382  72.225  0.00  0.00    -0.473 OA
BRANCH  21  22
ATOM     22  C   UNL     1     -13.244   7.179  71.652  0.00  0.00    +0.241 C 
BRANCH  22  24
ATOM     23  O   UNL     1     -15.338   8.092  72.411  0.00  0.00    -0.216 OA
ATOM     24  C   UNL     1     -14.755   7.062  71.667  0.00  0.00    +0.229 C 
ENDBRANCH  22  24
ENDBRANCH  21  22
ENDBRANCH  15  21
ENDBRANCH   1  18
BRANCH   2  25
ATOM     25  C   UNL     1     -10.738  15.256  69.167  0.00  0.00    +0.044 C 
BRANCH  25  26
ATOM     26  C   UNL     1     -11.493  16.116  68.161  0.00  0.00    +0.100 C 
ATOM     27 CL   UNL     1     -10.620  16.094  66.600  0.00  0.00    -0.113 Cl
ENDBRANCH  25  26
ENDBRANCH   2  25
TORSDOF 8
ENDMDL
MODEL 5
REMARK VINA RESULT:      -6.0      1.340      4.806
REMARK  Name = 
REMARK  8 active torsions:
REMARK  status: ('A' for Active; 'I' for Inactive)
REMARK    1  A    between atoms: C_2  and  C_3
REMARK    2  A    between atoms: C_3  and  O_4
REMARK    3  A    between atoms: O_4  and  C_5
REMARK    4  A    between atoms: C_8  and  C_9
REMARK    5  A    between atoms: C_9  and  C_20
REMARK    6  A    between atoms: C_10  and  C_11
REMARK    7  A    between atoms: C_10  and  C_14
REMARK    8  A    between atoms: C_11  and  C_12
REMARK                            x       y       z     vdW  Elec       q    Type
REMARK                         _______ _______ _______ _____ _____    ______ ____
ROOT
ATOM      1  C   UNL     1     -11.004  13.344  69.366  0.00  0.00    -0.004 C 
ATOM      2  C   UNL     1     -11.961  13.181  70.282  0.00  0.00    -0.021 C 
ENDROOT
BRANCH   2   3
ATOM      3  C   UNL     1     -12.423  14.321  71.084  0.00  0.00    -0.004 A 
ATOM      4  C   UNL     1     -13.779  14.591  71.198  0.00  0.00    -0.000 A 
ATOM      5  C   UNL     1     -14.295  15.345  72.239  0.00  0.00    -0.000 A 
ATOM      6  C   UNL     1     -13.374  15.986  73.057  0.00  0.00    -0.000 A 
ATOM      7  C   UNL     1     -12.130  15.413  73.234  0.00  0.00    -0.000 A 
ATOM      8  C   UNL     1     -11.632  14.688  72.166  0.00  0.00    -0.000 A 
ENDBRANCH   2   3
BRANCH   1   9
ATOM      9  C   UNL     1     -10.685  12.240  68.460  0.00  0.00    -0.000 A 
ATOM     10  C   UNL     1      -9.575  11.447  68.723  0.00  0.00    -0.000 A 
ATOM     11  C   UNL     1      -9.578  10.195  68.126  0.00  0.00    -0.000 A 
ATOM     12  C   UNL     1     -10.356   9.987  67.004  0.00  0.00    -0.000 A 
ATOM     13  C   UNL     1     -11.028  11.066  66.454  0.00  0.00    -0.000 A 
ATOM     14  C   UNL     1     -11.079  12.280  67.130  0.00  0.00    -0.000 A 
ENDBRANCH   1   9
BRANCH   1  18
ATOM     15  C   UNL     1     -10.063  17.389  68.547  0.00  0.00    +0.139 A 
ATOM     16  C   UNL     1     -11.192  16.829  67.966  0.00  0.00    +0.037 A 
ATOM     17  C   UNL     1     -11.565  15.532  68.300  0.00  0.00    +0.003 A 
ATOM     18  C   UNL     1     -10.675  14.692  68.922  0.00  0.00    -0.000 A 
ATOM     19  C   UNL     1      -9.355  15.118  68.978  0.00  0.00    +0.003 A 
ATOM     20  C   UNL     1      -9.122  16.477  69.010  0.00  0.00    +0.037 A 
BRANCH  15  21
ATOM     21  O   UNL     1      -9.635  18.669  68.199  0.00  0.00    -0.473 OA
BRANCH  21  22
ATOM     22  C   UNL     1     -10.498  19.557  67.528  0.00  0.00    +0.241 C 
BRANCH  22  24
ATOM     23  O   UNL     1     -10.863  18.941  65.231  0.00  0.00    -0.216 OA
ATOM     24  C   UNL     1     -10.113  19.761  66.077  0.00  0.00    +0.229 C 
ENDBRANCH  22  24
ENDBRANCH  21  22
ENDBRANCH  15  21
ENDBRANCH   1  18
BRANCH   2  25
ATOM     25  C   UNL     1     -12.888  12.010  70.213  0.00  0.00    +0.044 C 
BRANCH  25  26
ATOM     26  C   UNL     1     -12.676  11.180  71.472  0.00  0.00    +0.100 C 
ATOM     27 CL   UNL     1     -11.719   9.725  71.061  0.00  0.00    -0.113 Cl
ENDBRANCH  25  26
ENDBRANCH   2  25
TORSDOF 8
ENDMDL
MODEL 6
REMARK VINA RESULT:      -5.8      3.905      7.782
REMARK  Name = 
REMARK  8 active torsions:
REMARK  status: ('A' for Active; 'I' for Inactive)
REMARK    1  A    between atoms: C_2  and  C_3
REMARK    2  A    between atoms: C_3  and  O_4
REMARK    3  A    between atoms: O_4  and  C_5
REMARK    4  A    between atoms: C_8  and  C_9
REMARK    5  A    between atoms: C_9  and  C_20
REMARK    6  A    between atoms: C_10  and  C_11
REMARK    7  A    between atoms: C_10  and  C_14
REMARK    8  A    between atoms: C_11  and  C_12
REMARK                            x       y       z     vdW  Elec       q    Type
REMARK                         _______ _______ _______ _____ _____    ______ ____
ROOT
ATOM      1  C   UNL     1     -10.807  12.110  66.752  0.00  0.00    -0.004 C 
ATOM      2  C   UNL     1     -10.585  13.419  66.882  0.00  0.00    -0.021 C 
ENDROOT
BRANCH   2   3
ATOM      3  C   UNL     1     -10.676  14.062  68.199  0.00  0.00    -0.004 A 
ATOM      4  C   UNL     1      -9.567  14.691  68.748  0.00  0.00    -0.000 A 
ATOM      5  C   UNL     1      -9.682  15.652  69.739  0.00  0.00    -0.000 A 
ATOM      6  C   UNL     1     -10.941  15.818  70.300  0.00  0.00    -0.000 A 
ATOM      7  C   UNL     1     -12.054  15.560  69.524  0.00  0.00    -0.000 A 
ATOM      8  C   UNL     1     -11.915  14.576  68.561  0.00  0.00    -0.000 A 
ENDBRANCH   2   3
BRANCH   1   9
ATOM      9  C   UNL     1     -10.539  11.462  65.468  0.00  0.00    -0.000 A 
ATOM     10  C   UNL     1     -11.382  11.714  64.393  0.00  0.00    -0.000 A 
ATOM     11  C   UNL     1     -10.848  11.452  63.139  0.00  0.00    -0.000 A 
ATOM     12  C   UNL     1      -9.793  10.569  63.029  0.00  0.00    -0.000 A 
ATOM     13  C   UNL     1      -9.369   9.897  64.164  0.00  0.00    -0.000 A 
ATOM     14  C   UNL     1      -9.860  10.253  65.415  0.00  0.00    -0.000 A 
ENDBRANCH   1   9
BRANCH   1  18
ATOM     15  C   UNL     1     -10.828  10.082  70.467  0.00  0.00    +0.139 A 
ATOM     16  C   UNL     1      -9.715   9.972  69.645  0.00  0.00    +0.037 A 
ATOM     17  C   UNL     1      -9.656  10.707  68.467  0.00  0.00    +0.003 A 
ATOM     18  C   UNL     1     -10.793  11.271  67.943  0.00  0.00    -0.000 A 
ATOM     19  C   UNL     1     -11.998  10.876  68.507  0.00  0.00    +0.003 A 
ATOM     20  C   UNL     1     -11.991  10.503  69.835  0.00  0.00    +0.037 A 
BRANCH  15  21
ATOM     21  O   UNL     1     -10.940   9.324  71.632  0.00  0.00    -0.473 OA
BRANCH  21  22
ATOM     22  C   UNL     1     -12.148   8.677  71.955  0.00  0.00    +0.241 C 
BRANCH  22  24
ATOM     23  O   UNL     1     -11.972   6.767  70.501  0.00  0.00    -0.216 OA
ATOM     24  C   UNL     1     -12.052   7.169  71.837  0.00  0.00    +0.229 C 
ENDBRANCH  22  24
ENDBRANCH  21  22
ENDBRANCH  15  21
ENDBRANCH   1  18
BRANCH   2  25
ATOM     25  C   UNL     1      -9.812  14.166  65.841  0.00  0.00    +0.044 C 
BRANCH  25  26
ATOM     26  C   UNL     1     -10.744  15.205  65.232  0.00  0.00    +0.100 C 
ATOM     27 CL   UNL     1     -10.344  16.815  65.901  0.00  0.00    -0.113 Cl
ENDBRANCH  25  26
ENDBRANCH   2  25
TORSDOF 8
ENDMDL
MODEL 7
REMARK VINA RESULT:      -5.8      2.347      4.415
REMARK  Name = 
REMARK  8 active torsions:
REMARK  status: ('A' for Active; 'I' for Inactive)
REMARK    1  A    between atoms: C_2  and  C_3
REMARK    2  A    between atoms: C_3  and  O_4
REMARK    3  A    between atoms: O_4  and  C_5
REMARK    4  A    between atoms: C_8  and  C_9
REMARK    5  A    between atoms: C_9  and  C_20
REMARK    6  A    between atoms: C_10  and  C_11
REMARK    7  A    between atoms: C_10  and  C_14
REMARK    8  A    between atoms: C_11  and  C_12
REMARK                            x       y       z     vdW  Elec       q    Type
REMARK                         _______ _______ _______ _____ _____    ______ ____
ROOT
ATOM      1  C   UNL     1     -10.565  11.115  68.285  0.00  0.00    -0.004 C 
ATOM      2  C   UNL     1     -10.444  10.664  67.035  0.00  0.00    -0.021 C 
ENDROOT
BRANCH   2   3
ATOM      3  C   UNL     1     -10.723  11.549  65.897  0.00  0.00    -0.004 A 
ATOM      4  C   UNL     1     -10.037  11.385  64.701  0.00  0.00    -0.000 A 
ATOM      5  C   UNL     1     -10.528  11.870  63.499  0.00  0.00    -0.000 A 
ATOM      6  C   UNL     1     -11.639  12.699  63.572  0.00  0.00    -0.000 A 
ATOM      7  C   UNL     1     -12.537  12.519  64.606  0.00  0.00    -0.000 A 
ATOM      8  C   UNL     1     -12.011  12.059  65.800  0.00  0.00    -0.000 A 
ENDBRANCH   2   3
BRANCH   1   9
ATOM      9  C   UNL     1     -10.114  10.275  69.396  0.00  0.00    -0.000 A 
ATOM     10  C   UNL     1     -10.986  10.014  70.445  0.00  0.00    -0.000 A 
ATOM     11  C   UNL     1     -10.687   8.895  71.209  0.00  0.00    -0.000 A 
ATOM     12  C   UNL     1      -9.393   8.414  71.218  0.00  0.00    -0.000 A 
ATOM     13  C   UNL     1      -8.416   9.126  70.542  0.00  0.00    -0.000 A 
ATOM     14  C   UNL     1      -8.766  10.185  69.713  0.00  0.00    -0.000 A 
ENDBRANCH   1   9
BRANCH   1  18
ATOM     15  C   UNL     1     -11.035  15.312  68.559  0.00  0.00    +0.139 A 
ATOM     16  C   UNL     1      -9.759  14.784  68.422  0.00  0.00    +0.037 A 
ATOM     17  C   UNL     1      -9.597  13.417  68.237  0.00  0.00    +0.003 A 
ATOM     18  C   UNL     1     -10.627  12.552  68.515  0.00  0.00    -0.000 A 
ATOM     19  C   UNL     1     -11.716  13.081  69.195  0.00  0.00    +0.003 A 
ATOM     20  C   UNL     1     -12.000  14.417  69.004  0.00  0.00    +0.037 A 
BRANCH  15  21
ATOM     21  O   UNL     1     -11.229  16.673  68.793  0.00  0.00    -0.473 OA
BRANCH  21  22
ATOM     22  C   UNL     1     -10.214  17.604  68.500  0.00  0.00    +0.241 C 
BRANCH  22  24
ATOM     23  O   UNL     1     -11.030  19.608  67.447  0.00  0.00    -0.216 OA
ATOM     24  C   UNL     1     -10.464  18.353  67.207  0.00  0.00    +0.229 C 
ENDBRANCH  22  24
ENDBRANCH  21  22
ENDBRANCH  15  21
ENDBRANCH   1  18
BRANCH   2  25
ATOM     25  C   UNL     1      -9.611   9.458  66.739  0.00  0.00    +0.044 C 
BRANCH  25  26
ATOM     26  C   UNL     1     -10.539   8.250  66.725  0.00  0.00    +0.100 C 
ATOM     27 CL   UNL     1      -9.888   6.999  67.825  0.00  0.00    -0.113 Cl
ENDBRANCH  25  26
ENDBRANCH   2  25
TORSDOF 8
ENDMDL
MODEL 8
REMARK VINA RESULT:      -5.8      3.884      6.261
REMARK  Name = 
REMARK  8 active torsions:
REMARK  status: ('A' for Active; 'I' for Inactive)
REMARK    1  A    between atoms: C_2  and  C_3
REMARK    2  A    between atoms: C_3  and  O_4
REMARK    3  A    between atoms: O_4  and  C_5
REMARK    4  A    between atoms: C_8  and  C_9
REMARK    5  A    between atoms: C_9  and  C_20
REMARK    6  A    between atoms: C_10  and  C_11
REMARK    7  A    between atoms: C_10  and  C_14
REMARK    8  A    between atoms: C_11  and  C_12
REMARK                            x       y       z     vdW  Elec       q    Type
REMARK                         _______ _______ _______ _____ _____    ______ ____
ROOT
ATOM      1  C   UNL     1     -11.736  13.506  70.209  0.00  0.00    -0.004 C 
ATOM      2  C   UNL     1     -11.475  13.926  68.970  0.00  0.00    -0.021 C 
ENDROOT
BRANCH   2   3
ATOM      3  C   UNL     1     -11.065  12.971  67.933  0.00  0.00    -0.004 A 
ATOM      4  C   UNL     1     -11.882  12.741  66.834  0.00  0.00    -0.000 A 
ATOM      5  C   UNL     1     -11.393  12.211  65.651  0.00  0.00    -0.000 A 
ATOM      6  C   UNL     1     -10.088  11.738  65.677  0.00  0.00    -0.000 A 
ATOM      7  C   UNL     1      -9.184  12.324  66.540  0.00  0.00    -0.000 A 
ATOM      8  C   UNL     1      -9.701  12.819  67.725  0.00  0.00    -0.000 A 
ENDBRANCH   2   3
BRANCH   1   9
ATOM      9  C   UNL     1     -12.311  14.441  71.177  0.00  0.00    -0.000 A 
ATOM     10  C   UNL     1     -13.616  14.883  71.000  0.00  0.00    -0.000 A 
ATOM     11  C   UNL     1     -14.238  15.381  72.136  0.00  0.00    -0.000 A 
ATOM     12  C   UNL     1     -13.462  15.843  73.180  0.00  0.00    -0.000 A 
ATOM     13  C   UNL     1     -12.088  15.885  73.017  0.00  0.00    -0.000 A 
ATOM     14  C   UNL     1     -11.494  15.292  71.909  0.00  0.00    -0.000 A 
ENDBRANCH   1   9
BRANCH   1  18
ATOM     15  C   UNL     1     -12.164   9.443  71.317  0.00  0.00    +0.139 A 
ATOM     16  C   UNL     1     -11.443   9.758  70.173  0.00  0.00    +0.037 A 
ATOM     17  C   UNL     1     -11.216  11.090  69.850  0.00  0.00    +0.003 A 
ATOM     18  C   UNL     1     -11.955  12.084  70.440  0.00  0.00    -0.000 A 
ATOM     19  C   UNL     1     -13.065  11.681  71.171  0.00  0.00    +0.003 A 
ATOM     20  C   UNL     1     -13.021  10.439  71.768  0.00  0.00    +0.037 A 
BRANCH  15  21
ATOM     21  O   UNL     1     -12.450   8.118  71.645  0.00  0.00    -0.473 OA
BRANCH  21  22
ATOM     22  C   UNL     1     -11.485   7.311  72.278  0.00  0.00    +0.241 C 
BRANCH  22  24
ATOM     23  O   UNL     1     -11.639   6.187  70.156  0.00  0.00    -0.216 OA
ATOM     24  C   UNL     1     -11.068   6.127  71.430  0.00  0.00    +0.229 C 
ENDBRANCH  22  24
ENDBRANCH  21  22
ENDBRANCH  15  21
ENDBRANCH   1  18
BRANCH   2  25
ATOM     25  C   UNL     1     -12.012  15.234  68.482  0.00  0.00    +0.044 C 
BRANCH  25  26
ATOM     26  C   UNL     1     -10.840  16.198  68.363  0.00  0.00    +0.100 C 
ATOM     27 CL   UNL     1     -10.300  16.258  66.659  0.00  0.00    -0.113 Cl
ENDBRANCH  25  26
ENDBRANCH   2  25
TORSDOF 8
ENDMDL
MODEL 9
REMARK VINA RESULT:      -5.7      2.779      4.067
REMARK  Name = 
REMARK  8 active torsions:
REMARK  status: ('A' for Active; 'I' for Inactive)
REMARK    1  A    between atoms: C_2  and  C_3
REMARK    2  A    between atoms: C_3  and  O_4
REMARK    3  A    between atoms: O_4  and  C_5
REMARK    4  A    between atoms: C_8  and  C_9
REMARK    5  A    between atoms: C_9  and  C_20
REMARK    6  A    between atoms: C_10  and  C_11
REMARK    7  A    between atoms: C_10  and  C_14
REMARK    8  A    between atoms: C_11  and  C_12
REMARK                            x       y       z     vdW  Elec       q    Type
REMARK                         _______ _______ _______ _____ _____    ______ ____
ROOT
ATOM      1  C   UNL     1     -10.875  10.884  67.970  0.00  0.00    -0.004 C 
ATOM      2  C   UNL     1     -10.347  10.117  67.015  0.00  0.00    -0.021 C 
ENDROOT
BRANCH   2   3
ATOM      3  C   UNL     1      -9.984  10.696  65.715  0.00  0.00    -0.004 A 
ATOM      4  C   UNL     1      -8.804  10.318  65.088  0.00  0.00    -0.000 A 
ATOM      5  C   UNL     1      -8.611  10.478  63.725  0.00  0.00    -0.000 A 
ATOM      6  C   UNL     1      -9.573  11.212  63.044  0.00  0.00    -0.000 A 
ATOM      7  C   UNL     1     -10.872  11.202  63.511  0.00  0.00    -0.000 A 
ATOM      8  C   UNL     1     -11.030  11.068  64.880  0.00  0.00    -0.000 A 
ENDBRANCH   2   3
BRANCH   1   9
ATOM      9  C   UNL     1     -11.065  10.329  69.311  0.00  0.00    -0.000 A 
ATOM     10  C   UNL     1     -12.199  10.677  70.034  0.00  0.00    -0.000 A 
ATOM     11  C   UNL     1     -12.545   9.809  71.060  0.00  0.00    -0.000 A 
ATOM     12  C   UNL     1     -11.577   8.986  71.600  0.00  0.00    -0.000 A 
ATOM     13  C   UNL     1     -10.269   9.128  71.166  0.00  0.00    -0.000 A 
ATOM     14  C   UNL     1      -9.975   9.937  70.075  0.00  0.00    -0.000 A 
ENDBRANCH   1   9
BRANCH   1  18
ATOM     15  C   UNL     1     -10.547  15.024  67.151  0.00  0.00    +0.139 A 
ATOM     16  C   UNL     1      -9.574  14.411  67.927  0.00  0.00    +0.037 A 
ATOM     17  C   UNL     1      -9.618  13.037  68.126  0.00  0.00    +0.003 A 
ATOM     18  C   UNL     1     -10.765  12.332  67.855  0.00  0.00    -0.000 A 
ATOM     19  C   UNL     1     -11.909  13.080  67.610  0.00  0.00    +0.003 A 
ATOM     20  C   UNL     1     -11.748  14.331  67.053  0.00  0.00    +0.037 A 
BRANCH  15  21
ATOM     21  O   UNL     1     -10.558  16.406  66.970  0.00  0.00    -0.473 OA
BRANCH  21  22
ATOM     22  C   UNL     1      -9.380  17.161  67.129  0.00  0.00    +0.241 C 
BRANCH  22  24
ATOM     23  O   UNL     1     -10.946  18.922  67.620  0.00  0.00    -0.216 OA
ATOM     24  C   UNL     1      -9.646  18.652  67.184  0.00  0.00    +0.229 C 
ENDBRANCH  22  24
ENDBRANCH  21  22
ENDBRANCH  15  21
ENDBRANCH   1  18
BRANCH   2  25
ATOM     25  C   UNL     1      -9.697   8.815  67.357  0.00  0.00    +0.044 C 
BRANCH  25  26
ATOM     26  C   UNL     1     -10.658   7.702  66.960  0.00  0.00    +0.100 C 
ATOM     27 CL   UNL     1     -10.928   6.631  68.367  0.00  0.00    -0.113 Cl
ENDBRANCH  25  26
ENDBRANCH   2  25
TORSDOF 8
ENDMDL
