MODEL 1
REMARK VINA RESULT:      -4.8      0.000      0.000
REMARK  Name = 
REMARK  0 active torsions:
REMARK  status: ('A' for Active; 'I' for Inactive)
REMARK                            x       y       z     vdW  Elec       q    Type
REMARK                         _______ _______ _______ _____ _____    ______ ____
ROOT
ATOM      1  O   UNL     1     -11.647  16.634  63.912  0.00  0.00    -0.243 OA
ATOM      2  C   UNL     1     -11.675  15.494  64.465  0.00  0.00    +0.372 A 
ATOM      3  N   UNL     1     -12.513  14.544  63.998  0.00  0.00    -0.150 NA
ATOM      4  C   UNL     1     -12.117  13.252  63.921  0.00  0.00    +0.312 A 
ATOM      5  O   UNL     1     -12.869  12.349  63.446  0.00  0.00    -0.263 OA
ATOM      6  C   UNL     1     -10.841  12.898  64.347  0.00  0.00    +0.217 A 
ATOM      7  F   UNL     1     -10.268  11.733  63.925  0.00  0.00    -0.197 F 
ATOM      8  C   UNL     1     -10.135  13.827  65.098  0.00  0.00    +0.138 A 
ATOM      9  N   UNL     1     -10.685  15.054  65.276  0.00  0.00    -0.187 NA
ENDROOT
TORSDOF 0
ENDMDL
MODEL 2
REMARK VINA RESULT:      -4.7      1.913      3.092
REMARK  Name = 
REMARK  0 active torsions:
REMARK  status: ('A' for Active; 'I' for Inactive)
REMARK                            x       y       z     vdW  Elec       q    Type
REMARK                         _______ _______ _______ _____ _____    ______ ____
ROOT
ATOM      1  O   UNL     1     -13.248  12.524  64.716  0.00  0.00    -0.243 OA
ATOM      2  C   UNL     1     -12.231  13.215  64.412  0.00  0.00    +0.372 A 
ATOM      3  N   UNL     1     -12.389  14.475  63.954  0.00  0.00    -0.150 NA
ATOM      4  C   UNL     1     -11.549  15.463  64.344  0.00  0.00    +0.312 A 
ATOM      5  O   UNL     1     -11.704  16.662  63.962  0.00  0.00    -0.263 OA
ATOM      6  C   UNL     1     -10.500  15.170  65.208  0.00  0.00    +0.217 A 
ATOM      7  F   UNL     1      -9.899  16.162  65.928  0.00  0.00    -0.197 F 
ATOM      8  C   UNL     1     -10.185  13.833  65.405  0.00  0.00    +0.138 A 
ATOM      9  N   UNL     1     -10.983  12.899  64.832  0.00  0.00    -0.187 NA
ENDROOT
TORSDOF 0
ENDMDL
MODEL 3
REMARK VINA RESULT:      -4.4      8.254      8.570
REMARK  Name = 
REMARK  0 active torsions:
REMARK  status: ('A' for Active; 'I' for Inactive)
REMARK                            x       y       z     vdW  Elec       q    Type
REMARK                         _______ _______ _______ _____ _____    ______ ____
ROOT
ATOM      1  O   UNL     1     -12.494  16.524  74.745  0.00  0.00    -0.243 OA
ATOM      2  C   UNL     1     -12.655  15.730  73.770  0.00  0.00    +0.372 A 
ATOM      3  N   UNL     1     -13.862  15.637  73.173  0.00  0.00    -0.150 NA
ATOM      4  C   UNL     1     -13.960  15.519  71.828  0.00  0.00    +0.312 A 
ATOM      5  O   UNL     1     -15.082  15.475  71.240  0.00  0.00    -0.263 OA
ATOM      6  C   UNL     1     -12.804  15.474  71.057  0.00  0.00    +0.217 A 
ATOM      7  F   UNL     1     -12.849  15.760  69.723  0.00  0.00    -0.197 F 
ATOM      8  C   UNL     1     -11.601  15.258  71.716  0.00  0.00    +0.138 A 
ATOM      9  N   UNL     1     -11.616  15.216  73.071  0.00  0.00    -0.187 NA
ENDROOT
TORSDOF 0
ENDMDL
MODEL 4
REMARK VINA RESULT:      -4.3      7.566      7.993
REMARK  Name = 
REMARK  0 active torsions:
REMARK  status: ('A' for Active; 'I' for Inactive)
REMARK                            x       y       z     vdW  Elec       q    Type
REMARK                         _______ _______ _______ _____ _____    ______ ____
ROOT
ATOM      1  O   UNL     1     -12.403  15.403  74.343  0.00  0.00    -0.243 OA
ATOM      2  C   UNL     1     -12.931  15.199  73.209  0.00  0.00    +0.372 A 
ATOM      3  N   UNL     1     -12.602  15.989  72.165  0.00  0.00    -0.150 NA
ATOM      4  C   UNL     1     -12.433  15.464  70.928  0.00  0.00    +0.312 A 
ATOM      5  O   UNL     1     -12.082  16.178  69.941  0.00  0.00    -0.263 OA
ATOM      6  C   UNL     1     -12.621  14.101  70.729  0.00  0.00    +0.217 A 
ATOM      7  F   UNL     1     -12.084  13.480  69.639  0.00  0.00    -0.197 F 
ATOM      8  C   UNL     1     -13.253  13.387  71.738  0.00  0.00    +0.138 A 
ATOM      9  N   UNL     1     -13.547  14.036  72.891  0.00  0.00    -0.187 NA
ENDROOT
TORSDOF 0
ENDMDL
MODEL 5
REMARK VINA RESULT:      -4.3      2.362      2.905
REMARK  Name = 
REMARK  0 active torsions:
REMARK  status: ('A' for Active; 'I' for Inactive)
REMARK                            x       y       z     vdW  Elec       q    Type
REMARK                         _______ _______ _______ _____ _____    ______ ____
ROOT
ATOM      1  O   UNL     1     -11.600  16.750  63.960  0.00  0.00    -0.243 OA
ATOM      2  C   UNL     1     -11.468  15.547  64.336  0.00  0.00    +0.372 A 
ATOM      3  N   UNL     1     -10.431  15.203  65.129  0.00  0.00    -0.150 NA
ATOM      4  C   UNL     1     -10.599  14.320  66.142  0.00  0.00    +0.312 A 
ATOM      5  O   UNL     1      -9.652  14.014  66.927  0.00  0.00    -0.263 OA
ATOM      6  C   UNL     1     -11.849  13.748  66.353  0.00  0.00    +0.217 A 
ATOM      7  F   UNL     1     -12.161  13.194  67.561  0.00  0.00    -0.197 F 
ATOM      8  C   UNL     1     -12.794  13.881  65.346  0.00  0.00    +0.138 A 
ATOM      9  N   UNL     1     -12.479  14.649  64.273  0.00  0.00    -0.187 NA
ENDROOT
TORSDOF 0
ENDMDL
MODEL 6
REMARK VINA RESULT:      -4.2      2.216      2.383
REMARK  Name = 
REMARK  0 active torsions:
REMARK  status: ('A' for Active; 'I' for Inactive)
REMARK                            x       y       z     vdW  Elec       q    Type
REMARK                         _______ _______ _______ _____ _____    ______ ____
ROOT
ATOM      1  O   UNL     1      -9.091  16.559  65.668  0.00  0.00    -0.243 OA
ATOM      2  C   UNL     1     -10.293  16.184  65.809  0.00  0.00    +0.372 A 
ATOM      3  N   UNL     1     -11.025  15.860  64.723  0.00  0.00    -0.150 NA
ATOM      4  C   UNL     1     -11.874  14.805  64.752  0.00  0.00    +0.312 A 
ATOM      5  O   UNL     1     -12.540  14.455  63.731  0.00  0.00    -0.263 OA
ATOM      6  C   UNL     1     -12.006  14.062  65.919  0.00  0.00    +0.217 A 
ATOM      7  F   UNL     1     -12.513  12.795  65.880  0.00  0.00    -0.197 F 
ATOM      8  C   UNL     1     -11.486  14.604  67.087  0.00  0.00    +0.138 A 
ATOM      9  N   UNL     1     -10.790  15.764  66.996  0.00  0.00    -0.187 NA
ENDROOT
TORSDOF 0
ENDMDL
MODEL 7
REMARK VINA RESULT:      -4.2      7.396      7.583
REMARK  Name = 
REMARK  0 active torsions:
REMARK  status: ('A' for Active; 'I' for Inactive)
REMARK                            x       y       z     vdW  Elec       q    Type
REMARK                         _______ _______ _______ _____ _____    ______ ____
ROOT
ATOM      1  O   UNL     1     -14.900  15.944  72.093  0.00  0.00    -0.243 OA
ATOM      2  C   UNL     1     -13.862  15.218  72.123  0.00  0.00    +0.372 A 
ATOM      3  N   UNL     1     -13.963  13.918  72.471  0.00  0.00    -0.150 NA
ATOM      4  C   UNL     1     -13.237  12.972  71.828  0.00  0.00    +0.312 A 
ATOM      5  O   UNL     1     -13.348  11.740  72.107  0.00  0.00    -0.263 OA
ATOM      6  C   UNL     1     -12.365  13.349  70.813  0.00  0.00    +0.217 A 
ATOM      7  F   UNL     1     -11.937  12.435  69.893  0.00  0.00    -0.197 F 
ATOM      8  C   UNL     1     -12.058  14.697  70.698  0.00  0.00    +0.138 A 
ATOM      9  N   UNL     1     -12.709  15.570  71.506  0.00  0.00    -0.187 NA
ENDROOT
TORSDOF 0
ENDMDL
MODEL 8
REMARK VINA RESULT:      -4.2     10.620     11.382
REMARK  Name = 
REMARK  0 active torsions:
REMARK  status: ('A' for Active; 'I' for Inactive)
REMARK                            x       y       z     vdW  Elec       q    Type
REMARK                         _______ _______ _______ _____ _____    ______ ____
ROOT
ATOM      1  O   UNL     1      -4.399  22.353  72.503  0.00  0.00    -0.243 OA
ATOM      2  C   UNL     1      -4.321  21.384  71.690  0.00  0.00    +0.372 A 
ATOM      3  N   UNL     1      -4.381  20.117  72.152  0.00  0.00    -0.150 NA
ATOM      4  C   UNL     1      -5.065  19.166  71.473  0.00  0.00    +0.312 A 
ATOM      5  O   UNL     1      -5.173  17.980  71.908  0.00  0.00    -0.263 OA
ATOM      6  C   UNL     1      -5.695  19.495  70.278  0.00  0.00    +0.217 A 
ATOM      7  F   UNL     1      -6.700  18.712  69.786  0.00  0.00    -0.197 F 
ATOM      8  C   UNL     1      -5.355  20.703  69.685  0.00  0.00    +0.138 A 
ATOM      9  N   UNL     1      -4.519  21.531  70.359  0.00  0.00    -0.187 NA
ENDROOT
TORSDOF 0
ENDMDL
MODEL 9
REMARK VINA RESULT:      -4.1      2.692      3.237
REMARK  Name = 
REMARK  0 active torsions:
REMARK  status: ('A' for Active; 'I' for Inactive)
REMARK                            x       y       z     vdW  Elec       q    Type
REMARK                         _______ _______ _______ _____ _____    ______ ____
ROOT
ATOM      1  O   UNL     1     -12.061  11.769  67.853  0.00  0.00    -0.243 OA
ATOM      2  C   UNL     1     -11.614  12.354  66.821  0.00  0.00    +0.372 A 
ATOM      3  N   UNL     1     -12.042  11.974  65.598  0.00  0.00    -0.150 NA
ATOM      4  C   UNL     1     -12.289  12.894  64.636  0.00  0.00    +0.312 A 
ATOM      5  O   UNL     1     -12.733  12.566  63.495  0.00  0.00    -0.263 OA
ATOM      6  C   UNL     1     -12.080  14.242  64.906  0.00  0.00    +0.217 A 
ATOM      7  F   UNL     1     -12.681  15.202  64.143  0.00  0.00    -0.197 F 
ATOM      8  C   UNL     1     -11.355  14.563  66.045  0.00  0.00    +0.138 A 
ATOM      9  N   UNL     1     -10.993  13.555  66.876  0.00  0.00    -0.187 NA
ENDROOT
TORSDOF 0
ENDMDL
