MODEL 1
REMARK VINA RESULT:      -7.2      0.000      0.000
REMARK  Name = 
REMARK  2 active torsions:
REMARK  status: ('A' for Active; 'I' for Inactive)
REMARK    1  A    between atoms: C_4  and  C_5
REMARK    2  A    between atoms: N_7  and  C_8
REMARK                            x       y       z     vdW  Elec       q    Type
REMARK                         _______ _______ _______ _____ _____    ______ ____
ROOT
ATOM      1  C   UNL     1     -11.965  11.687  69.520  0.00  0.00    +0.284 C 
ATOM      2  N   UNL     1     -11.557  10.916  70.665  0.00  0.00    -0.202 NA
ATOM      3  O   UNL     1     -12.087  11.199  68.355  0.00  0.00    -0.267 OA
ENDROOT
BRANCH   1  11
ATOM      4  C   UNL     1     -10.339  16.347  69.005  0.00  0.00    +0.154 C 
ATOM      5  N   UNL     1     -10.878  15.127  69.543  0.00  0.00    -0.249 N 
ATOM      6  C   UNL     1     -11.642  15.131  70.653  0.00  0.00    +0.080 A 
ATOM      7  C   UNL     1     -12.337  13.925  70.599  0.00  0.00    +0.041 A 
ATOM      8  C   UNL     1     -13.191  13.604  71.647  0.00  0.00    +0.003 A 
ATOM      9  C   UNL     1     -13.191  14.313  72.838  0.00  0.00    +0.000 A 
ATOM     10  C   UNL     1     -12.492  15.512  72.841  0.00  0.00    +0.002 A 
ATOM     11  C   UNL     1     -11.843  13.151  69.556  0.00  0.00    +0.157 A 
ATOM     12  C   UNL     1     -11.872  15.986  71.697  0.00  0.00    +0.019 A 
ATOM     13  N   UNL     1     -10.853  13.904  69.028  0.00  0.00    -0.165 NA
ENDBRANCH   1  11
BRANCH   2  14
ATOM     14  C   UNL     1     -11.450   9.419  70.200  0.00  0.00    +0.098 C 
ATOM     15  C   UNL     1     -12.078   8.811  71.584  0.00  0.00    +0.038 C 
ATOM     16  C   UNL     1     -12.178   7.216  71.126  0.00  0.00    +0.059 C 
ATOM     17  N   UNL     1     -11.117   7.203  70.031  0.00  0.00    -0.274 NA
ATOM     18  C   UNL     1      -9.666   7.683  70.193  0.00  0.00    +0.059 C 
ATOM     19  C   UNL     1      -9.272   6.975  71.637  0.00  0.00    +0.016 C 
ATOM     20  C   UNL     1     -10.177   5.824  71.832  0.00  0.00    +0.003 C 
ATOM     21  C   UNL     1     -11.164   5.997  69.324  0.00  0.00    +0.090 C 
ATOM     22  C   UNL     1     -11.288   6.648  72.396  0.00  0.00    +0.016 C 
ATOM     23  C   UNL     1      -9.966   9.183  70.852  0.00  0.00    +0.038 C 
ENDBRANCH   2  14
TORSDOF 2
ENDMDL
MODEL 2
REMARK VINA RESULT:      -6.8      1.555      2.107
REMARK  Name = 
REMARK  2 active torsions:
REMARK  status: ('A' for Active; 'I' for Inactive)
REMARK    1  A    between atoms: C_4  and  C_5
REMARK    2  A    between atoms: N_7  and  C_8
REMARK                            x       y       z     vdW  Elec       q    Type
REMARK                         _______ _______ _______ _____ _____    ______ ____
ROOT
ATOM      1  C   UNL     1     -12.223  10.654  71.167  0.00  0.00    +0.284 C 
ATOM      2  N   UNL     1     -10.977   9.943  71.041  0.00  0.00    -0.202 NA
ATOM      3  O   UNL     1     -13.295  10.118  71.583  0.00  0.00    -0.267 OA
ENDROOT
BRANCH   1  11
ATOM      4  C   UNL     1     -11.825  14.355  67.885  0.00  0.00    +0.154 C 
ATOM      5  N   UNL     1     -11.940  13.600  69.104  0.00  0.00    -0.249 N 
ATOM      6  C   UNL     1     -12.399  14.169  70.236  0.00  0.00    +0.080 A 
ATOM      7  C   UNL     1     -12.806  13.093  71.023  0.00  0.00    +0.041 A 
ATOM      8  C   UNL     1     -13.293  13.352  72.298  0.00  0.00    +0.003 A 
ATOM      9  C   UNL     1     -13.164  14.595  72.897  0.00  0.00    +0.000 A 
ATOM     10  C   UNL     1     -12.763  15.637  72.070  0.00  0.00    +0.002 A 
ATOM     11  C   UNL     1     -12.418  11.904  70.419  0.00  0.00    +0.157 A 
ATOM     12  C   UNL     1     -12.553  15.442  70.716  0.00  0.00    +0.019 A 
ATOM     13  N   UNL     1     -11.772  12.298  69.300  0.00  0.00    -0.165 NA
ENDBRANCH   1  11
BRANCH   2  14
ATOM     14  C   UNL     1     -11.204   8.505  71.632  0.00  0.00    +0.098 C 
ATOM     15  C   UNL     1      -9.617   8.239  71.931  0.00  0.00    +0.038 C 
ATOM     16  C   UNL     1      -9.760   6.792  72.734  0.00  0.00    +0.059 C 
ATOM     17  N   UNL     1     -11.102   6.329  72.180  0.00  0.00    -0.274 NA
ATOM     18  C   UNL     1     -11.457   6.215  70.689  0.00  0.00    +0.059 C 
ATOM     19  C   UNL     1     -10.099   5.464  70.110  0.00  0.00    +0.016 C 
ATOM     20  C   UNL     1      -9.461   4.761  71.242  0.00  0.00    +0.003 C 
ATOM     21  C   UNL     1     -11.558   5.209  72.885  0.00  0.00    +0.090 C 
ATOM     22  C   UNL     1      -8.735   5.971  71.732  0.00  0.00    +0.016 C 
ATOM     23  C   UNL     1     -10.992   7.739  70.200  0.00  0.00    +0.038 C 
ENDBRANCH   2  14
TORSDOF 2
ENDMDL
MODEL 3
REMARK VINA RESULT:      -6.7      3.793      8.764
REMARK  Name = 
REMARK  2 active torsions:
REMARK  status: ('A' for Active; 'I' for Inactive)
REMARK    1  A    between atoms: C_4  and  C_5
REMARK    2  A    between atoms: N_7  and  C_8
REMARK                            x       y       z     vdW  Elec       q    Type
REMARK                         _______ _______ _______ _____ _____    ______ ____
ROOT
ATOM      1  C   UNL     1     -10.679  15.721  68.548  0.00  0.00    +0.284 C 
ATOM      2  N   UNL     1      -9.565  16.426  69.128  0.00  0.00    -0.202 NA
ATOM      3  O   UNL     1     -10.941  15.727  67.307  0.00  0.00    -0.267 OA
ENDROOT
BRANCH   1  11
ATOM      4  C   UNL     1     -14.112  15.537  72.127  0.00  0.00    +0.154 C 
ATOM      5  N   UNL     1     -13.065  15.194  71.203  0.00  0.00    -0.249 N 
ATOM      6  C   UNL     1     -12.821  13.911  70.870  0.00  0.00    +0.080 A 
ATOM      7  C   UNL     1     -12.117  13.993  69.670  0.00  0.00    +0.041 A 
ATOM      8  C   UNL     1     -11.671  12.816  69.081  0.00  0.00    +0.003 A 
ATOM      9  C   UNL     1     -11.688  11.605  69.755  0.00  0.00    +0.000 A 
ATOM     10  C   UNL     1     -12.409  11.571  70.941  0.00  0.00    +0.002 A 
ATOM     11  C   UNL     1     -11.803  15.321  69.406  0.00  0.00    +0.157 A 
ATOM     12  C   UNL     1     -13.106  12.678  71.392  0.00  0.00    +0.019 A 
ATOM     13  N   UNL     1     -12.307  15.994  70.463  0.00  0.00    -0.165 NA
ENDBRANCH   1  11
BRANCH   2  14
ATOM     14  C   UNL     1      -8.734  17.033  67.940  0.00  0.00    +0.098 C 
ATOM     15  C   UNL     1      -7.497  17.528  68.891  0.00  0.00    +0.038 C 
ATOM     16  C   UNL     1      -6.460  18.037  67.696  0.00  0.00    +0.059 C 
ATOM     17  N   UNL     1      -7.470  18.302  66.585  0.00  0.00    -0.274 NA
ATOM     18  C   UNL     1      -8.714  19.196  66.709  0.00  0.00    +0.059 C 
ATOM     19  C   UNL     1      -8.065  20.514  67.474  0.00  0.00    +0.016 C 
ATOM     20  C   UNL     1      -6.614  20.521  67.200  0.00  0.00    +0.003 C 
ATOM     21  C   UNL     1      -6.808  18.539  65.375  0.00  0.00    +0.090 C 
ATOM     22  C   UNL     1      -6.286  19.564  68.300  0.00  0.00    +0.016 C 
ATOM     23  C   UNL     1      -9.363  18.537  68.094  0.00  0.00    +0.038 C 
ENDBRANCH   2  14
TORSDOF 2
ENDMDL
MODEL 4
REMARK VINA RESULT:      -6.7      2.364      7.249
REMARK  Name = 
REMARK  2 active torsions:
REMARK  status: ('A' for Active; 'I' for Inactive)
REMARK    1  A    between atoms: C_4  and  C_5
REMARK    2  A    between atoms: N_7  and  C_8
REMARK                            x       y       z     vdW  Elec       q    Type
REMARK                         _______ _______ _______ _____ _____    ______ ____
ROOT
ATOM      1  C   UNL     1     -10.580  10.609  68.195  0.00  0.00    +0.284 C 
ATOM      2  N   UNL     1      -9.653  11.698  68.365  0.00  0.00    -0.202 NA
ATOM      3  O   UNL     1     -11.591  10.665  67.430  0.00  0.00    -0.267 OA
ENDROOT
BRANCH   1  11
ATOM      4  C   UNL     1     -10.652   6.218  70.506  0.00  0.00    +0.154 C 
ATOM      5  N   UNL     1     -10.965   7.554  70.074  0.00  0.00    -0.249 N 
ATOM      6  C   UNL     1     -11.713   8.376  70.837  0.00  0.00    +0.080 A 
ATOM      7  C   UNL     1     -11.419   9.652  70.360  0.00  0.00    +0.041 A 
ATOM      8  C   UNL     1     -12.080  10.738  70.922  0.00  0.00    +0.003 A 
ATOM      9  C   UNL     1     -13.178  10.581  71.753  0.00  0.00    +0.000 A 
ATOM     10  C   UNL     1     -13.425   9.292  72.208  0.00  0.00    +0.002 A 
ATOM     11  C   UNL     1     -10.643   9.551  69.212  0.00  0.00    +0.157 A 
ATOM     12  C   UNL     1     -12.588   8.239  71.881  0.00  0.00    +0.019 A 
ATOM     13  N   UNL     1     -10.510   8.221  69.020  0.00  0.00    -0.165 NA
ENDBRANCH   1  11
BRANCH   2  14
ATOM     14  C   UNL     1     -10.073  12.825  67.354  0.00  0.00    +0.098 C 
ATOM     15  C   UNL     1      -8.777  13.772  67.674  0.00  0.00    +0.038 C 
ATOM     16  C   UNL     1      -9.029  14.931  66.510  0.00  0.00    +0.059 C 
ATOM     17  N   UNL     1     -10.529  14.759  66.305  0.00  0.00    -0.274 NA
ATOM     18  C   UNL     1     -11.589  14.797  67.418  0.00  0.00    +0.059 C 
ATOM     19  C   UNL     1     -11.088  16.129  68.267  0.00  0.00    +0.016 C 
ATOM     20  C   UNL     1     -10.288  16.968  67.352  0.00  0.00    +0.003 C 
ATOM     21  C   UNL     1     -10.954  15.490  65.191  0.00  0.00    +0.090 C 
ATOM     22  C   UNL     1      -9.025  16.199  67.569  0.00  0.00    +0.016 C 
ATOM     23  C   UNL     1     -10.900  13.699  68.464  0.00  0.00    +0.038 C 
ENDBRANCH   2  14
TORSDOF 2
ENDMDL
MODEL 5
REMARK VINA RESULT:      -6.6      2.741      8.416
REMARK  Name = 
REMARK  2 active torsions:
REMARK  status: ('A' for Active; 'I' for Inactive)
REMARK    1  A    between atoms: C_4  and  C_5
REMARK    2  A    between atoms: N_7  and  C_8
REMARK                            x       y       z     vdW  Elec       q    Type
REMARK                         _______ _______ _______ _____ _____    ______ ____
ROOT
ATOM      1  C   UNL     1     -11.047  14.750  68.613  0.00  0.00    +0.284 C 
ATOM      2  N   UNL     1     -10.139  15.792  69.015  0.00  0.00    -0.202 NA
ATOM      3  O   UNL     1     -11.885  14.877  67.669  0.00  0.00    -0.267 OA
ENDROOT
BRANCH   1  11
ATOM      4  C   UNL     1     -12.048  10.306  70.582  0.00  0.00    +0.154 C 
ATOM      5  N   UNL     1     -12.079  11.705  70.251  0.00  0.00    -0.249 N 
ATOM      6  C   UNL     1     -12.667  12.602  71.066  0.00  0.00    +0.080 A 
ATOM      7  C   UNL     1     -12.113  13.824  70.691  0.00  0.00    +0.041 A 
ATOM      8  C   UNL     1     -12.559  14.977  71.328  0.00  0.00    +0.003 A 
ATOM      9  C   UNL     1     -13.686  14.983  72.134  0.00  0.00    +0.000 A 
ATOM     10  C   UNL     1     -14.196  13.740  72.487  0.00  0.00    +0.002 A 
ATOM     11  C   UNL     1     -11.345  13.654  69.547  0.00  0.00    +0.157 A 
ATOM     12  C   UNL     1     -13.577  12.568  72.088  0.00  0.00    +0.019 A 
ATOM     13  N   UNL     1     -11.475  12.342  69.255  0.00  0.00    -0.165 NA
ENDBRANCH   1  11
BRANCH   2  14
ATOM     14  C   UNL     1     -10.313  16.975  67.996  0.00  0.00    +0.098 C 
ATOM     15  C   UNL     1      -8.900  16.686  67.222  0.00  0.00    +0.038 C 
ATOM     16  C   UNL     1      -9.068  17.787  65.989  0.00  0.00    +0.059 C 
ATOM     17  N   UNL     1     -10.048  18.752  66.647  0.00  0.00    -0.274 NA
ATOM     18  C   UNL     1      -9.854  19.421  68.016  0.00  0.00    +0.059 C 
ATOM     19  C   UNL     1      -8.276  19.912  67.893  0.00  0.00    +0.016 C 
ATOM     20  C   UNL     1      -7.953  20.019  66.456  0.00  0.00    +0.003 C 
ATOM     21  C   UNL     1     -10.525  19.673  65.708  0.00  0.00    +0.090 C 
ATOM     22  C   UNL     1      -7.644  18.566  66.300  0.00  0.00    +0.016 C 
ATOM     23  C   UNL     1      -9.507  18.063  68.916  0.00  0.00    +0.038 C 
ENDBRANCH   2  14
TORSDOF 2
ENDMDL
MODEL 6
REMARK VINA RESULT:      -6.5      3.388      8.959
REMARK  Name = 
REMARK  2 active torsions:
REMARK  status: ('A' for Active; 'I' for Inactive)
REMARK    1  A    between atoms: C_4  and  C_5
REMARK    2  A    between atoms: N_7  and  C_8
REMARK                            x       y       z     vdW  Elec       q    Type
REMARK                         _______ _______ _______ _____ _____    ______ ____
ROOT
ATOM      1  C   UNL     1     -11.167  13.979  66.949  0.00  0.00    +0.284 C 
ATOM      2  N   UNL     1     -10.012  14.708  67.406  0.00  0.00    -0.202 NA
ATOM      3  O   UNL     1     -12.144  14.523  66.349  0.00  0.00    -0.267 OA
ENDROOT
BRANCH   1  11
ATOM      4  C   UNL     1     -11.897  10.222  70.108  0.00  0.00    +0.154 C 
ATOM      5  N   UNL     1     -11.459  11.023  68.996  0.00  0.00    -0.249 N 
ATOM      6  C   UNL     1     -11.043  10.454  67.848  0.00  0.00    +0.080 A 
ATOM      7  C   UNL     1     -11.156  11.468  66.899  0.00  0.00    +0.041 A 
ATOM      8  C   UNL     1     -10.750  11.205  65.596  0.00  0.00    +0.003 A 
ATOM      9  C   UNL     1     -10.023  10.072  65.267  0.00  0.00    +0.000 A 
ATOM     10  C   UNL     1      -9.945   9.086  66.243  0.00  0.00    +0.002 A 
ATOM     11  C   UNL     1     -11.466  12.664  67.533  0.00  0.00    +0.157 A 
ATOM     12  C   UNL     1     -10.601   9.219  67.455  0.00  0.00    +0.019 A 
ATOM     13  N   UNL     1     -11.510  12.341  68.844  0.00  0.00    -0.165 NA
ENDBRANCH   1  11
BRANCH   2  14
ATOM     14  C   UNL     1     -10.166  16.186  66.896  0.00  0.00    +0.098 C 
ATOM     15  C   UNL     1      -8.555  16.458  66.806  0.00  0.00    +0.038 C 
ATOM     16  C   UNL     1      -8.601  17.960  66.097  0.00  0.00    +0.059 C 
ATOM     17  N   UNL     1      -9.999  18.394  66.519  0.00  0.00    -0.274 NA
ATOM     18  C   UNL     1     -10.529  18.405  67.962  0.00  0.00    +0.059 C 
ATOM     19  C   UNL     1      -9.249  19.102  68.750  0.00  0.00    +0.016 C 
ATOM     20  C   UNL     1      -8.481  19.878  67.755  0.00  0.00    +0.003 C 
ATOM     21  C   UNL     1     -10.368  19.565  65.847  0.00  0.00    +0.090 C 
ATOM     22  C   UNL     1      -7.702  18.699  67.269  0.00  0.00    +0.016 C 
ATOM     23  C   UNL     1     -10.125  16.848  68.393  0.00  0.00    +0.038 C 
ENDBRANCH   2  14
TORSDOF 2
ENDMDL
MODEL 7
REMARK VINA RESULT:      -6.5      4.810     10.034
REMARK  Name = 
REMARK  2 active torsions:
REMARK  status: ('A' for Active; 'I' for Inactive)
REMARK    1  A    between atoms: C_4  and  C_5
REMARK    2  A    between atoms: N_7  and  C_8
REMARK                            x       y       z     vdW  Elec       q    Type
REMARK                         _______ _______ _______ _____ _____    ______ ____
ROOT
ATOM      1  C   UNL     1      -9.912  17.111  66.817  0.00  0.00    +0.284 C 
ATOM      2  N   UNL     1      -8.656  17.543  67.372  0.00  0.00    -0.202 NA
ATOM      3  O   UNL     1     -10.396  17.572  65.739  0.00  0.00    -0.267 OA
ENDROOT
BRANCH   1  11
ATOM      4  C   UNL     1     -12.642  15.682  70.707  0.00  0.00    +0.154 C 
ATOM      5  N   UNL     1     -11.810  15.685  69.534  0.00  0.00    -0.249 N 
ATOM      6  C   UNL     1     -11.731  14.606  68.732  0.00  0.00    +0.080 A 
ATOM      7  C   UNL     1     -11.252  15.107  67.524  0.00  0.00    +0.041 A 
ATOM      8  C   UNL     1     -11.013  14.215  66.484  0.00  0.00    +0.003 A 
ATOM      9  C   UNL     1     -11.000  12.844  66.680  0.00  0.00    +0.000 A 
ATOM     10  C   UNL     1     -11.494  12.392  67.897  0.00  0.00    +0.002 A 
ATOM     11  C   UNL     1     -10.889  16.438  67.685  0.00  0.00    +0.157 A 
ATOM     12  C   UNL     1     -12.011  13.269  68.835  0.00  0.00    +0.019 A 
ATOM     13  N   UNL     1     -11.139  16.692  68.988  0.00  0.00    -0.165 NA
ENDBRANCH   1  11
BRANCH   2  14
ATOM     14  C   UNL     1      -8.009  18.532  66.336  0.00  0.00    +0.098 C 
ATOM     15  C   UNL     1      -6.619  17.680  66.197  0.00  0.00    +0.038 C 
ATOM     16  C   UNL     1      -5.918  18.556  64.971  0.00  0.00    +0.059 C 
ATOM     17  N   UNL     1      -6.651  19.879  65.157  0.00  0.00    -0.274 NA
ATOM     18  C   UNL     1      -6.740  20.669  66.473  0.00  0.00    +0.059 C 
ATOM     19  C   UNL     1      -5.163  20.600  66.975  0.00  0.00    +0.016 C 
ATOM     20  C   UNL     1      -4.325  20.357  65.783  0.00  0.00    +0.003 C 
ATOM     21  C   UNL     1      -6.389  20.735  64.082  0.00  0.00    +0.090 C 
ATOM     22  C   UNL     1      -4.527  18.877  65.802  0.00  0.00    +0.016 C 
ATOM     23  C   UNL     1      -7.258  19.441  67.472  0.00  0.00    +0.038 C 
ENDBRANCH   2  14
TORSDOF 2
ENDMDL
MODEL 8
REMARK VINA RESULT:      -6.5      4.334      9.173
REMARK  Name = 
REMARK  2 active torsions:
REMARK  status: ('A' for Active; 'I' for Inactive)
REMARK    1  A    between atoms: C_4  and  C_5
REMARK    2  A    between atoms: N_7  and  C_8
REMARK                            x       y       z     vdW  Elec       q    Type
REMARK                         _______ _______ _______ _____ _____    ______ ____
ROOT
ATOM      1  C   UNL     1     -10.509  17.013  68.012  0.00  0.00    +0.284 C 
ATOM      2  N   UNL     1      -9.134  16.622  67.843  0.00  0.00    -0.202 NA
ATOM      3  O   UNL     1     -10.973  18.127  67.621  0.00  0.00    -0.267 OA
ENDROOT
BRANCH   1  11
ATOM      4  C   UNL     1     -12.607  15.578  72.275  0.00  0.00    +0.154 C 
ATOM      5  N   UNL     1     -11.955  15.583  70.992  0.00  0.00    -0.249 N 
ATOM      6  C   UNL     1     -11.969  14.495  70.199  0.00  0.00    +0.080 A 
ATOM      7  C   UNL     1     -11.684  14.990  68.928  0.00  0.00    +0.041 A 
ATOM      8  C   UNL     1     -11.579  14.090  67.874  0.00  0.00    +0.003 A 
ATOM      9  C   UNL     1     -11.506  12.722  68.080  0.00  0.00    +0.000 A 
ATOM     10  C   UNL     1     -11.806  12.276  69.361  0.00  0.00    +0.002 A 
ATOM     11  C   UNL     1     -11.332  16.331  69.020  0.00  0.00    +0.157 A 
ATOM     12  C   UNL     1     -12.200  13.154  70.355  0.00  0.00    +0.019 A 
ATOM     13  N   UNL     1     -11.395  16.597  70.343  0.00  0.00    -0.165 NA
ENDBRANCH   1  11
BRANCH   2  14
ATOM     14  C   UNL     1      -8.434  17.746  66.997  0.00  0.00    +0.098 C 
ATOM     15  C   UNL     1      -7.099  16.854  66.679  0.00  0.00    +0.038 C 
ATOM     16  C   UNL     1      -6.354  17.899  65.624  0.00  0.00    +0.059 C 
ATOM     17  N   UNL     1      -7.004  19.205  66.064  0.00  0.00    -0.274 NA
ATOM     18  C   UNL     1      -7.037  19.742  67.504  0.00  0.00    +0.059 C 
ATOM     19  C   UNL     1      -5.464  19.488  67.957  0.00  0.00    +0.016 C 
ATOM     20  C   UNL     1      -4.649  19.422  66.727  0.00  0.00    +0.003 C 
ATOM     21  C   UNL     1      -6.696  20.229  65.160  0.00  0.00    +0.090 C 
ATOM     22  C   UNL     1      -4.941  17.978  66.476  0.00  0.00    +0.016 C 
ATOM     23  C   UNL     1      -7.622  18.383  68.268  0.00  0.00    +0.038 C 
ENDBRANCH   2  14
TORSDOF 2
ENDMDL
MODEL 9
REMARK VINA RESULT:      -6.4      3.164      7.016
REMARK  Name = 
REMARK  2 active torsions:
REMARK  status: ('A' for Active; 'I' for Inactive)
REMARK    1  A    between atoms: C_4  and  C_5
REMARK    2  A    between atoms: N_7  and  C_8
REMARK                            x       y       z     vdW  Elec       q    Type
REMARK                         _______ _______ _______ _____ _____    ______ ____
ROOT
ATOM      1  C   UNL     1      -9.625  10.207  68.651  0.00  0.00    +0.284 C 
ATOM      2  N   UNL     1      -9.834  11.621  68.471  0.00  0.00    -0.202 NA
ATOM      3  O   UNL     1      -9.742   9.358  67.716  0.00  0.00    -0.267 OA
ENDROOT
BRANCH   1  11
ATOM      4  C   UNL     1      -8.960   7.354  72.657  0.00  0.00    +0.154 C 
ATOM      5  N   UNL     1      -9.552   8.132  71.602  0.00  0.00    -0.249 N 
ATOM      6  C   UNL     1     -10.794   8.639  71.721  0.00  0.00    +0.080 A 
ATOM      7  C   UNL     1     -10.840   9.668  70.783  0.00  0.00    +0.041 A 
ATOM      8  C   UNL     1     -12.029  10.370  70.626  0.00  0.00    +0.003 A 
ATOM      9  C   UNL     1     -13.220   9.933  71.184  0.00  0.00    +0.000 A 
ATOM     10  C   UNL     1     -13.122   8.911  72.119  0.00  0.00    +0.002 A 
ATOM     11  C   UNL     1      -9.690   9.637  70.004  0.00  0.00    +0.157 A 
ATOM     12  C   UNL     1     -11.894   8.398  72.500  0.00  0.00    +0.019 A 
ATOM     13  N   UNL     1      -8.998   8.580  70.481  0.00  0.00    -0.165 NA
ENDBRANCH   1  11
BRANCH   2  14
ATOM     14  C   UNL     1     -10.077  11.860  66.937  0.00  0.00    +0.098 C 
ATOM     15  C   UNL     1      -9.756  13.464  67.007  0.00  0.00    +0.038 C 
ATOM     16  C   UNL     1      -9.811  13.794  65.379  0.00  0.00    +0.059 C 
ATOM     17  N   UNL     1     -10.685  12.633  64.917  0.00  0.00    -0.274 NA
ATOM     18  C   UNL     1     -12.063  12.272  65.495  0.00  0.00    +0.059 C 
ATOM     19  C   UNL     1     -12.766  13.771  65.560  0.00  0.00    +0.016 C 
ATOM     20  C   UNL     1     -12.070  14.633  64.583  0.00  0.00    +0.003 C 
ATOM     21  C   UNL     1     -10.700  12.562  63.520  0.00  0.00    +0.090 C 
ATOM     22  C   UNL     1     -10.953  14.980  65.513  0.00  0.00    +0.016 C 
ATOM     23  C   UNL     1     -11.660  12.239  67.111  0.00  0.00    +0.038 C 
ENDBRANCH   2  14
TORSDOF 2
ENDMDL
