MODEL 1
REMARK VINA RESULT:      -3.1      0.000      0.000
REMARK  Name = 
REMARK  2 active torsions:
REMARK  status: ('A' for Active; 'I' for Inactive)
REMARK    1  A    between atoms: C_2  and  C_3
REMARK    2  A    between atoms: C_3  and  C_5
REMARK                            x       y       z     vdW  Elec       q    Type
REMARK                         _______ _______ _______ _____ _____    ______ ____
ROOT
ATOM      1  C   UNL     1     -13.372  15.629  72.923  0.00  0.00    +0.102 C 
ATOM      2  S   UNL     1     -11.936  15.955  71.707  0.00  0.00    -0.079 S 
ENDROOT
BRANCH   1   4
ATOM      3  O   UNL     1     -12.481  16.368  75.014  0.00  0.00    -0.219 OA
ATOM      4  C   UNL     1     -12.428  15.343  74.172  0.00  0.00    +0.195 C 
ENDBRANCH   1   4
BRANCH   1   5
ATOM      5  C   UNL     1     -13.536  14.100  72.513  0.00  0.00    +0.083 C 
ATOM      6  S   UNL     1     -12.578  13.768  71.036  0.00  0.00    -0.081 S 
ENDBRANCH   1   5
TORSDOF 2
ENDMDL
MODEL 2
REMARK VINA RESULT:      -3.0      8.153      8.478
REMARK  Name = 
REMARK  2 active torsions:
REMARK  status: ('A' for Active; 'I' for Inactive)
REMARK    1  A    between atoms: C_2  and  C_3
REMARK    2  A    between atoms: C_3  and  C_5
REMARK                            x       y       z     vdW  Elec       q    Type
REMARK                         _______ _______ _______ _____ _____    ______ ____
ROOT
ATOM      1  C   UNL     1     -10.735  14.586  65.096  0.00  0.00    +0.102 C 
ATOM      2  S   UNL     1     -11.483  14.449  66.847  0.00  0.00    -0.079 S 
ENDROOT
BRANCH   1   4
ATOM      3  O   UNL     1     -11.593  16.494  63.940  0.00  0.00    -0.219 OA
ATOM      4  C   UNL     1     -10.880  16.169  65.012  0.00  0.00    +0.195 C 
ENDBRANCH   1   4
BRANCH   1   5
ATOM      5  C   UNL     1     -12.107  14.277  64.351  0.00  0.00    +0.083 C 
ATOM      6  S   UNL     1     -12.032  12.649  63.606  0.00  0.00    -0.081 S 
ENDBRANCH   1   5
TORSDOF 2
ENDMDL
MODEL 3
REMARK VINA RESULT:      -2.9      2.290      2.650
REMARK  Name = 
REMARK  2 active torsions:
REMARK  status: ('A' for Active; 'I' for Inactive)
REMARK    1  A    between atoms: C_2  and  C_3
REMARK    2  A    between atoms: C_3  and  C_5
REMARK                            x       y       z     vdW  Elec       q    Type
REMARK                         _______ _______ _______ _____ _____    ______ ____
ROOT
ATOM      1  C   UNL     1     -13.289  15.656  72.429  0.00  0.00    +0.102 C 
ATOM      2  S   UNL     1     -12.490  15.573  74.161  0.00  0.00    -0.079 S 
ENDROOT
BRANCH   1   4
ATOM      3  O   UNL     1     -14.253  13.474  72.564  0.00  0.00    -0.219 OA
ATOM      4  C   UNL     1     -13.157  14.095  72.145  0.00  0.00    +0.195 C 
ENDBRANCH   1   4
BRANCH   1   5
ATOM      5  C   UNL     1     -11.936  16.051  71.688  0.00  0.00    +0.083 C 
ATOM      6  S   UNL     1     -12.027  15.557  69.969  0.00  0.00    -0.081 S 
ENDBRANCH   1   5
TORSDOF 2
ENDMDL
MODEL 4
REMARK VINA RESULT:      -2.9      7.710      8.161
REMARK  Name = 
REMARK  2 active torsions:
REMARK  status: ('A' for Active; 'I' for Inactive)
REMARK    1  A    between atoms: C_2  and  C_3
REMARK    2  A    between atoms: C_3  and  C_5
REMARK                            x       y       z     vdW  Elec       q    Type
REMARK                         _______ _______ _______ _____ _____    ______ ____
ROOT
ATOM      1  C   UNL     1     -11.989  14.478  64.779  0.00  0.00    +0.102 C 
ATOM      2  S   UNL     1     -10.629  13.166  64.502  0.00  0.00    -0.079 S 
ENDROOT
BRANCH   1   4
ATOM      3  O   UNL     1     -11.411  16.713  64.159  0.00  0.00    -0.219 OA
ATOM      4  C   UNL     1     -10.975  15.700  64.896  0.00  0.00    +0.195 C 
ENDBRANCH   1   4
BRANCH   1   5
ATOM      5  C   UNL     1     -12.089  14.223  66.347  0.00  0.00    +0.083 C 
ATOM      6  S   UNL     1     -11.631  12.530  66.710  0.00  0.00    -0.081 S 
ENDBRANCH   1   5
TORSDOF 2
ENDMDL
MODEL 5
REMARK VINA RESULT:      -2.9      1.930      2.454
REMARK  Name = 
REMARK  2 active torsions:
REMARK  status: ('A' for Active; 'I' for Inactive)
REMARK    1  A    between atoms: C_2  and  C_3
REMARK    2  A    between atoms: C_3  and  C_5
REMARK                            x       y       z     vdW  Elec       q    Type
REMARK                         _______ _______ _______ _____ _____    ______ ____
ROOT
ATOM      1  C   UNL     1     -12.321  14.914  72.307  0.00  0.00    +0.102 C 
ATOM      2  S   UNL     1     -13.570  13.473  72.204  0.00  0.00    -0.079 S 
ENDROOT
BRANCH   1   4
ATOM      3  O   UNL     1     -14.412  16.049  72.536  0.00  0.00    -0.219 OA
ATOM      4  C   UNL     1     -13.268  15.850  73.180  0.00  0.00    +0.195 C 
ENDBRANCH   1   4
BRANCH   1   5
ATOM      5  C   UNL     1     -12.745  15.545  70.909  0.00  0.00    +0.083 C 
ATOM      6  S   UNL     1     -11.279  16.025  69.998  0.00  0.00    -0.081 S 
ENDBRANCH   1   5
TORSDOF 2
ENDMDL
MODEL 6
REMARK VINA RESULT:      -2.9      2.895      3.512
REMARK  Name = 
REMARK  2 active torsions:
REMARK  status: ('A' for Active; 'I' for Inactive)
REMARK    1  A    between atoms: C_2  and  C_3
REMARK    2  A    between atoms: C_3  and  C_5
REMARK                            x       y       z     vdW  Elec       q    Type
REMARK                         _______ _______ _______ _____ _____    ______ ____
ROOT
ATOM      1  C   UNL     1     -13.399  15.497  71.451  0.00  0.00    +0.102 C 
ATOM      2  S   UNL     1     -13.505  13.764  72.246  0.00  0.00    -0.079 S 
ENDROOT
BRANCH   1   4
ATOM      3  O   UNL     1     -12.160  16.080  69.492  0.00  0.00    -0.219 OA
ATOM      4  C   UNL     1     -12.500  15.026  70.224  0.00  0.00    +0.195 C 
ENDBRANCH   1   4
BRANCH   1   5
ATOM      5  C   UNL     1     -12.175  15.971  72.352  0.00  0.00    +0.083 C 
ATOM      6  S   UNL     1     -12.510  15.588  74.069  0.00  0.00    -0.081 S 
ENDBRANCH   1   5
TORSDOF 2
ENDMDL
MODEL 7
REMARK VINA RESULT:      -2.7      7.560      7.815
REMARK  Name = 
REMARK  2 active torsions:
REMARK  status: ('A' for Active; 'I' for Inactive)
REMARK    1  A    between atoms: C_2  and  C_3
REMARK    2  A    between atoms: C_3  and  C_5
REMARK                            x       y       z     vdW  Elec       q    Type
REMARK                         _______ _______ _______ _____ _____    ______ ____
ROOT
ATOM      1  C   UNL     1      -9.813  15.750  65.790  0.00  0.00    +0.102 C 
ATOM      2  S   UNL     1     -10.196  17.523  66.390  0.00  0.00    -0.079 S 
ENDROOT
BRANCH   1   4
ATOM      3  O   UNL     1     -11.258  16.830  64.222  0.00  0.00    -0.219 OA
ATOM      4  C   UNL     1     -11.075  15.661  64.823  0.00  0.00    +0.195 C 
ENDBRANCH   1   4
BRANCH   1   5
ATOM      5  C   UNL     1     -10.529  15.045  67.025  0.00  0.00    +0.083 C 
ATOM      6  S   UNL     1     -11.951  14.121  66.448  0.00  0.00    -0.081 S 
ENDBRANCH   1   5
TORSDOF 2
ENDMDL
MODEL 8
REMARK VINA RESULT:      -2.7      2.856      3.415
REMARK  Name = 
REMARK  2 active torsions:
REMARK  status: ('A' for Active; 'I' for Inactive)
REMARK    1  A    between atoms: C_2  and  C_3
REMARK    2  A    between atoms: C_3  and  C_5
REMARK                            x       y       z     vdW  Elec       q    Type
REMARK                         _______ _______ _______ _____ _____    ______ ____
ROOT
ATOM      1  C   UNL     1     -13.017  15.464  71.016  0.00  0.00    +0.102 C 
ATOM      2  S   UNL     1     -13.832  14.199  72.191  0.00  0.00    -0.079 S 
ENDROOT
BRANCH   1   4
ATOM      3  O   UNL     1     -12.281  13.199  70.817  0.00  0.00    -0.219 OA
ATOM      4  C   UNL     1     -11.993  14.421  70.385  0.00  0.00    +0.195 C 
ENDBRANCH   1   4
BRANCH   1   5
ATOM      5  C   UNL     1     -12.002  16.015  72.112  0.00  0.00    +0.083 C 
ATOM      6  S   UNL     1     -12.494  15.430  73.733  0.00  0.00    -0.081 S 
ENDBRANCH   1   5
TORSDOF 2
ENDMDL
MODEL 9
REMARK VINA RESULT:      -2.7      8.920      9.155
REMARK  Name = 
REMARK  2 active torsions:
REMARK  status: ('A' for Active; 'I' for Inactive)
REMARK    1  A    between atoms: C_2  and  C_3
REMARK    2  A    between atoms: C_3  and  C_5
REMARK                            x       y       z     vdW  Elec       q    Type
REMARK                         _______ _______ _______ _____ _____    ______ ____
ROOT
ATOM      1  C   UNL     1     -11.997  12.559  65.287  0.00  0.00    +0.102 C 
ATOM      2  S   UNL     1     -12.531  12.048  63.527  0.00  0.00    -0.079 S 
ENDROOT
BRANCH   1   4
ATOM      3  O   UNL     1     -12.604  14.333  63.806  0.00  0.00    -0.219 OA
ATOM      4  C   UNL     1     -12.320  14.104  65.082  0.00  0.00    +0.195 C 
ENDBRANCH   1   4
BRANCH   1   5
ATOM      5  C   UNL     1     -10.454  12.685  64.916  0.00  0.00    +0.083 C 
ATOM      6  S   UNL     1     -10.095  11.667  63.486  0.00  0.00    -0.081 S 
ENDBRANCH   1   5
TORSDOF 2
ENDMDL
