MODEL 1
REMARK VINA RESULT:      -4.5      0.000      0.000
REMARK  Name = 
REMARK  2 active torsions:
REMARK  status: ('A' for Active; 'I' for Inactive)
REMARK    1  A    between atoms: P_2  and  O_5
REMARK    2  A    between atoms: O_5  and  P_6
REMARK                            x       y       z     vdW  Elec       q    Type
REMARK                         _______ _______ _______ _____ _____    ______ ____
ROOT
ATOM      1  O   UNL     1     -14.166  16.130  72.970  0.00  0.00    -0.180 OA
ENDROOT
BRANCH   1   3
ATOM      2  O   UNL     1     -11.696  16.604  72.423  0.00  0.00    -0.222 OA
ATOM      3  P   UNL     1     -12.558  16.017  73.517  0.00  0.00    +0.540 P 
ATOM      4  O   UNL     1     -12.462  16.996  74.903  0.00  0.00    -0.114 OA
ATOM      5  O   UNL     1     -12.160  14.415  73.851  0.00  0.00    -0.114 OA
ENDBRANCH   1   3
BRANCH   1   6
ATOM      6  P   UNL     1     -14.392  14.911  71.826  0.00  0.00    +0.540 P 
ATOM      7  O   UNL     1     -14.373  13.384  72.540  0.00  0.00    -0.114 OA
ATOM      8  O   UNL     1     -13.184  14.940  70.628  0.00  0.00    -0.114 OA
ATOM      9  O   UNL     1     -15.721  15.096  71.141  0.00  0.00    -0.222 OA
ENDBRANCH   1   6
TORSDOF 2
ENDMDL
MODEL 2
REMARK VINA RESULT:      -4.4      0.084      3.589
REMARK  Name = 
REMARK  2 active torsions:
REMARK  status: ('A' for Active; 'I' for Inactive)
REMARK    1  A    between atoms: P_2  and  O_5
REMARK    2  A    between atoms: O_5  and  P_6
REMARK                            x       y       z     vdW  Elec       q    Type
REMARK                         _______ _______ _______ _____ _____    ______ ____
ROOT
ATOM      1  O   UNL     1     -14.215  16.129  72.947  0.00  0.00    -0.180 OA
ENDROOT
BRANCH   1   3
ATOM      2  O   UNL     1     -15.745  15.105  71.148  0.00  0.00    -0.222 OA
ATOM      3  P   UNL     1     -14.398  14.886  71.799  0.00  0.00    +0.540 P 
ATOM      4  O   UNL     1     -13.168  15.120  70.651  0.00  0.00    -0.114 OA
ATOM      5  O   UNL     1     -14.287  13.377  72.540  0.00  0.00    -0.114 OA
ENDBRANCH   1   3
BRANCH   1   6
ATOM      6  P   UNL     1     -12.633  16.045  73.526  0.00  0.00    +0.540 P 
ATOM      7  O   UNL     1     -12.186  14.458  73.875  0.00  0.00    -0.114 OA
ATOM      8  O   UNL     1     -12.431  16.966  74.942  0.00  0.00    -0.114 OA
ATOM      9  O   UNL     1     -11.683  16.586  72.489  0.00  0.00    -0.222 OA
ENDBRANCH   1   6
TORSDOF 2
ENDMDL
MODEL 3
REMARK VINA RESULT:      -4.3      6.914      8.162
REMARK  Name = 
REMARK  2 active torsions:
REMARK  status: ('A' for Active; 'I' for Inactive)
REMARK    1  A    between atoms: P_2  and  O_5
REMARK    2  A    between atoms: O_5  and  P_6
REMARK                            x       y       z     vdW  Elec       q    Type
REMARK                         _______ _______ _______ _____ _____    ______ ____
ROOT
ATOM      1  O   UNL     1     -10.637  13.925  64.479  0.00  0.00    -0.180 OA
ENDROOT
BRANCH   1   3
ATOM      2  O   UNL     1      -9.185  15.808  65.466  0.00  0.00    -0.222 OA
ATOM      3  P   UNL     1     -10.636  15.412  65.306  0.00  0.00    +0.540 P 
ATOM      4  O   UNL     1     -11.418  16.521  64.284  0.00  0.00    -0.114 OA
ATOM      5  O   UNL     1     -11.421  15.262  66.789  0.00  0.00    -0.114 OA
ENDBRANCH   1   3
BRANCH   1   6
ATOM      6  P   UNL     1     -12.113  13.175  64.799  0.00  0.00    +0.540 P 
ATOM      7  O   UNL     1     -13.306  14.301  65.188  0.00  0.00    -0.114 OA
ATOM      8  O   UNL     1     -11.994  12.075  66.091  0.00  0.00    -0.114 OA
ATOM      9  O   UNL     1     -12.567  12.407  63.585  0.00  0.00    -0.222 OA
ENDBRANCH   1   6
TORSDOF 2
ENDMDL
MODEL 4
REMARK VINA RESULT:      -4.2      6.930      8.854
REMARK  Name = 
REMARK  2 active torsions:
REMARK  status: ('A' for Active; 'I' for Inactive)
REMARK    1  A    between atoms: P_2  and  O_5
REMARK    2  A    between atoms: O_5  and  P_6
REMARK                            x       y       z     vdW  Elec       q    Type
REMARK                         _______ _______ _______ _____ _____    ______ ____
ROOT
ATOM      1  O   UNL     1     -10.288  14.059  64.637  0.00  0.00    -0.180 OA
ENDROOT
BRANCH   1   3
ATOM      2  O   UNL     1     -12.739  14.510  63.993  0.00  0.00    -0.222 OA
ATOM      3  P   UNL     1     -11.839  13.385  64.451  0.00  0.00    +0.540 P 
ATOM      4  O   UNL     1     -11.705  12.227  63.215  0.00  0.00    -0.114 OA
ATOM      5  O   UNL     1     -12.362  12.700  65.899  0.00  0.00    -0.114 OA
ENDBRANCH   1   3
BRANCH   1   6
ATOM      6  P   UNL     1     -10.483  15.571  65.360  0.00  0.00    +0.540 P 
ATOM      7  O   UNL     1     -11.387  15.464  66.779  0.00  0.00    -0.114 OA
ATOM      8  O   UNL     1     -11.268  16.668  64.324  0.00  0.00    -0.114 OA
ATOM      9  O   UNL     1      -9.134  16.149  65.702  0.00  0.00    -0.222 OA
ENDBRANCH   1   6
TORSDOF 2
ENDMDL
MODEL 5
REMARK VINA RESULT:      -4.2      7.055      8.248
REMARK  Name = 
REMARK  2 active torsions:
REMARK  status: ('A' for Active; 'I' for Inactive)
REMARK    1  A    between atoms: P_2  and  O_5
REMARK    2  A    between atoms: O_5  and  P_6
REMARK                            x       y       z     vdW  Elec       q    Type
REMARK                         _______ _______ _______ _____ _____    ______ ____
ROOT
ATOM      1  O   UNL     1     -10.579  13.926  64.563  0.00  0.00    -0.180 OA
ENDROOT
BRANCH   1   3
ATOM      2  O   UNL     1     -11.345  15.288  66.609  0.00  0.00    -0.222 OA
ATOM      3  P   UNL     1     -10.639  15.467  65.284  0.00  0.00    +0.540 P 
ATOM      4  O   UNL     1      -9.025  15.922  65.557  0.00  0.00    -0.114 OA
ATOM      5  O   UNL     1     -11.437  16.558  64.279  0.00  0.00    -0.114 OA
ENDBRANCH   1   3
BRANCH   1   6
ATOM      6  P   UNL     1     -12.086  13.205  64.799  0.00  0.00    +0.540 P 
ATOM      7  O   UNL     1     -13.267  14.350  65.167  0.00  0.00    -0.114 OA
ATOM      8  O   UNL     1     -12.049  12.069  66.066  0.00  0.00    -0.114 OA
ATOM      9  O   UNL     1     -12.504  12.479  63.547  0.00  0.00    -0.222 OA
ENDBRANCH   1   6
TORSDOF 2
ENDMDL
MODEL 6
REMARK VINA RESULT:      -4.2      7.074      8.891
REMARK  Name = 
REMARK  2 active torsions:
REMARK  status: ('A' for Active; 'I' for Inactive)
REMARK    1  A    between atoms: P_2  and  O_5
REMARK    2  A    between atoms: O_5  and  P_6
REMARK                            x       y       z     vdW  Elec       q    Type
REMARK                         _______ _______ _______ _____ _____    ______ ____
ROOT
ATOM      1  O   UNL     1     -10.297  14.057  64.616  0.00  0.00    -0.180 OA
ENDROOT
BRANCH   1   3
ATOM      2  O   UNL     1     -12.745  14.475  63.940  0.00  0.00    -0.222 OA
ATOM      3  P   UNL     1     -11.844  13.370  64.440  0.00  0.00    +0.540 P 
ATOM      4  O   UNL     1     -11.695  12.173  63.243  0.00  0.00    -0.114 OA
ATOM      5  O   UNL     1     -12.375  12.729  65.905  0.00  0.00    -0.114 OA
ENDBRANCH   1   3
BRANCH   1   6
ATOM      6  P   UNL     1     -10.502  15.573  65.328  0.00  0.00    +0.540 P 
ATOM      7  O   UNL     1     -11.296  16.639  64.291  0.00  0.00    -0.114 OA
ATOM      8  O   UNL     1      -9.011  16.274  65.755  0.00  0.00    -0.114 OA
ATOM      9  O   UNL     1     -11.321  15.438  66.585  0.00  0.00    -0.222 OA
ENDBRANCH   1   6
TORSDOF 2
ENDMDL
MODEL 7
REMARK VINA RESULT:      -4.1      7.059      8.868
REMARK  Name = 
REMARK  2 active torsions:
REMARK  status: ('A' for Active; 'I' for Inactive)
REMARK    1  A    between atoms: P_2  and  O_5
REMARK    2  A    between atoms: O_5  and  P_6
REMARK                            x       y       z     vdW  Elec       q    Type
REMARK                         _______ _______ _______ _____ _____    ______ ____
ROOT
ATOM      1  O   UNL     1     -10.275  14.034  64.680  0.00  0.00    -0.180 OA
ENDROOT
BRANCH   1   3
ATOM      2  O   UNL     1     -11.704  12.414  63.281  0.00  0.00    -0.222 OA
ATOM      3  P   UNL     1     -11.837  13.419  64.403  0.00  0.00    +0.540 P 
ATOM      4  O   UNL     1     -12.288  12.618  65.832  0.00  0.00    -0.114 OA
ATOM      5  O   UNL     1     -12.902  14.665  64.018  0.00  0.00    -0.114 OA
ENDBRANCH   1   3
BRANCH   1   6
ATOM      6  P   UNL     1     -10.454  15.565  65.365  0.00  0.00    +0.540 P 
ATOM      7  O   UNL     1     -11.233  16.625  64.311  0.00  0.00    -0.114 OA
ATOM      8  O   UNL     1      -8.952  16.250  65.777  0.00  0.00    -0.114 OA
ATOM      9  O   UNL     1     -11.272  15.465  66.626  0.00  0.00    -0.222 OA
ENDBRANCH   1   6
TORSDOF 2
ENDMDL
MODEL 8
REMARK VINA RESULT:      -4.1      7.297      8.919
REMARK  Name = 
REMARK  2 active torsions:
REMARK  status: ('A' for Active; 'I' for Inactive)
REMARK    1  A    between atoms: P_2  and  O_5
REMARK    2  A    between atoms: O_5  and  P_6
REMARK                            x       y       z     vdW  Elec       q    Type
REMARK                         _______ _______ _______ _____ _____    ______ ____
ROOT
ATOM      1  O   UNL     1     -10.690  13.617  64.270  0.00  0.00    -0.180 OA
ENDROOT
BRANCH   1   3
ATOM      2  O   UNL     1     -10.597  11.051  64.095  0.00  0.00    -0.222 OA
ATOM      3  P   UNL     1     -11.560  12.164  64.439  0.00  0.00    +0.540 P 
ATOM      4  O   UNL     1     -11.988  12.058  66.080  0.00  0.00    -0.114 OA
ATOM      5  O   UNL     1     -12.913  12.167  63.436  0.00  0.00    -0.114 OA
ENDBRANCH   1   3
BRANCH   1   6
ATOM      6  P   UNL     1     -11.634  14.846  64.938  0.00  0.00    +0.540 P 
ATOM      7  O   UNL     1     -13.236  14.358  65.130  0.00  0.00    -0.114 OA
ATOM      8  O   UNL     1     -11.627  16.242  63.966  0.00  0.00    -0.114 OA
ATOM      9  O   UNL     1     -11.090  15.227  66.290  0.00  0.00    -0.222 OA
ENDBRANCH   1   6
TORSDOF 2
ENDMDL
MODEL 9
REMARK VINA RESULT:      -4.1      5.662      7.134
REMARK  Name = 
REMARK  2 active torsions:
REMARK  status: ('A' for Active; 'I' for Inactive)
REMARK    1  A    between atoms: P_2  and  O_5
REMARK    2  A    between atoms: O_5  and  P_6
REMARK                            x       y       z     vdW  Elec       q    Type
REMARK                         _______ _______ _______ _____ _____    ______ ____
ROOT
ATOM      1  O   UNL     1     -12.306  14.343  66.519  0.00  0.00    -0.180 OA
ENDROOT
BRANCH   1   3
ATOM      2  O   UNL     1     -10.035  13.518  67.406  0.00  0.00    -0.222 OA
ATOM      3  P   UNL     1     -11.510  13.199  67.495  0.00  0.00    +0.540 P 
ATOM      4  O   UNL     1     -12.055  13.472  69.081  0.00  0.00    -0.114 OA
ATOM      5  O   UNL     1     -11.856  11.635  66.973  0.00  0.00    -0.114 OA
ENDBRANCH   1   3
BRANCH   1   6
ATOM      6  P   UNL     1     -12.199  13.801  64.925  0.00  0.00    +0.540 P 
ATOM      7  O   UNL     1     -13.206  12.477  64.654  0.00  0.00    -0.114 OA
ATOM      8  O   UNL     1     -10.612  13.340  64.523  0.00  0.00    -0.114 OA
ATOM      9  O   UNL     1     -12.606  14.906  63.984  0.00  0.00    -0.222 OA
ENDBRANCH   1   6
TORSDOF 2
ENDMDL
