MODEL 1
REMARK VINA RESULT:      -6.8      0.000      0.000
REMARK  Name = 
REMARK  8 active torsions:
REMARK  status: ('A' for Active; 'I' for Inactive)
REMARK    1  A    between atoms: O_2  and  C_3
REMARK    2  A    between atoms: C_6  and  C_7
REMARK    3  A    between atoms: C_7  and  C_8
REMARK    4  A    between atoms: C_8  and  N_10
REMARK    5  A    between atoms: N_10  and  C_11
REMARK    6  A    between atoms: C_11  and  C_12
REMARK    7  A    between atoms: C_12  and  C_14
REMARK    8  A    between atoms: C_19  and  N_20
REMARK                            x       y       z     vdW  Elec       q    Type
REMARK                         _______ _______ _______ _____ _____    ______ ____
ROOT
ATOM      1  C   UNL     1      -9.927  11.932  67.542  0.00  0.00    +0.126 C 
ENDROOT
BRANCH   1   2
ATOM      2  C   UNL     1      -8.689  12.958  67.104  0.00  0.00    +0.192 C 
ATOM      3  O   UNL     1      -8.672  13.617  68.490  0.00  0.00    -0.217 OA
BRANCH   2   4
ATOM      4  C   UNL     1      -9.725  14.057  66.493  0.00  0.00    +0.011 A 
ATOM      5  C   UNL     1     -10.706  13.541  65.691  0.00  0.00    +0.018 A 
ATOM      6  C   UNL     1     -11.414  14.464  64.928  0.00  0.00    +0.112 A 
ATOM      7  C   UNL     1     -11.036  15.801  64.894  0.00  0.00    +0.211 A 
ATOM      8  O   UNL     1     -11.493  16.667  63.894  0.00  0.00    -0.285 OA
ATOM      9  C   UNL     1     -10.235  16.254  65.935  0.00  0.00    +0.043 A 
ATOM     10  C   UNL     1      -9.423  15.364  66.633  0.00  0.00    +0.002 A 
BRANCH   6  11
ATOM     11  N   UNL     1     -12.508  14.049  64.133  0.00  0.00    -0.168 NA
ATOM     12  C   UNL     1     -12.477  12.738  63.592  0.00  0.00    +0.325 C 
ATOM     13  O   UNL     1     -11.423  12.343  63.057  0.00  0.00    -0.263 OA
ENDBRANCH   6  11
ENDBRANCH   2   4
ENDBRANCH   1   2
BRANCH   1  14
ATOM     14  N   UNL     1      -9.803  12.059  68.995  0.00  0.00    -0.216 NA
BRANCH  14  15
ATOM     15  C   UNL     1     -11.204  11.573  69.547  0.00  0.00    +0.077 C 
ATOM     16  C   UNL     1     -11.639  10.971  68.073  0.00  0.00    +0.019 C 
BRANCH  15  17
ATOM     17  C   UNL     1     -11.901  13.035  69.230  0.00  0.00    +0.044 C 
BRANCH  17  21
ATOM     18  C   UNL     1     -12.492  15.039  72.822  0.00  0.00    +0.139 A 
ATOM     19  C   UNL     1     -11.818  15.694  71.830  0.00  0.00    +0.037 A 
ATOM     20  C   UNL     1     -11.653  14.978  70.650  0.00  0.00    -0.001 A 
ATOM     21  C   UNL     1     -12.106  13.668  70.549  0.00  0.00    -0.021 A 
ATOM     22  C   UNL     1     -13.097  13.230  71.420  0.00  0.00    -0.001 A 
ATOM     23  C   UNL     1     -13.254  13.930  72.601  0.00  0.00    +0.037 A 
BRANCH  18  25
ATOM     24  C   UNL     1     -12.518  15.738  74.336  0.00  0.00    +0.252 C 
ATOM     25  O   UNL     1     -12.497  15.626  74.081  0.00  0.00    -0.471 OA
ENDBRANCH  18  25
ENDBRANCH  17  21
ENDBRANCH  15  17
ENDBRANCH  14  15
ENDBRANCH   1  14
TORSDOF 8
ENDMDL
MODEL 2
REMARK VINA RESULT:      -6.6      4.162      5.717
REMARK  Name = 
REMARK  8 active torsions:
REMARK  status: ('A' for Active; 'I' for Inactive)
REMARK    1  A    between atoms: O_2  and  C_3
REMARK    2  A    between atoms: C_6  and  C_7
REMARK    3  A    between atoms: C_7  and  C_8
REMARK    4  A    between atoms: C_8  and  N_10
REMARK    5  A    between atoms: N_10  and  C_11
REMARK    6  A    between atoms: C_11  and  C_12
REMARK    7  A    between atoms: C_12  and  C_14
REMARK    8  A    between atoms: C_19  and  N_20
REMARK                            x       y       z     vdW  Elec       q    Type
REMARK                         _______ _______ _______ _____ _____    ______ ____
ROOT
ATOM      1  C   UNL     1      -9.904  16.680  67.101  0.00  0.00    +0.126 C 
ENDROOT
BRANCH   1   2
ATOM      2  C   UNL     1     -10.023  17.739  68.382  0.00  0.00    +0.192 C 
ATOM      3  O   UNL     1     -11.020  18.628  67.624  0.00  0.00    -0.217 OA
BRANCH   2   4
ATOM      4  C   UNL     1      -8.734  18.598  67.879  0.00  0.00    +0.011 A 
ATOM      5  C   UNL     1      -7.640  18.529  68.698  0.00  0.00    +0.018 A 
ATOM      6  C   UNL     1      -6.642  19.468  68.460  0.00  0.00    +0.112 A 
ATOM      7  C   UNL     1      -6.830  20.490  67.537  0.00  0.00    +0.211 A 
ATOM      8  O   UNL     1      -6.014  21.626  67.524  0.00  0.00    -0.285 OA
ATOM      9  C   UNL     1      -7.825  20.302  66.586  0.00  0.00    +0.043 A 
ATOM     10  C   UNL     1      -8.901  19.458  66.854  0.00  0.00    +0.002 A 
BRANCH   6  11
ATOM     11  N   UNL     1      -5.431  19.429  69.190  0.00  0.00    -0.168 NA
ATOM     12  C   UNL     1      -5.489  19.659  70.588  0.00  0.00    +0.325 C 
ATOM     13  O   UNL     1      -6.173  20.615  71.003  0.00  0.00    -0.263 OA
ENDBRANCH   6  11
ENDBRANCH   2   4
ENDBRANCH   1   2
BRANCH   1  14
ATOM     14  N   UNL     1     -10.961  15.747  67.498  0.00  0.00    -0.216 NA
BRANCH  14  15
ATOM     15  C   UNL     1     -10.373  15.018  68.773  0.00  0.00    +0.077 C 
ATOM     16  C   UNL     1      -9.910  13.709  67.881  0.00  0.00    +0.019 C 
BRANCH  15  17
ATOM     17  C   UNL     1     -11.835  14.341  69.132  0.00  0.00    +0.044 C 
BRANCH  17  21
ATOM     18  C   UNL     1     -12.485  15.308  73.121  0.00  0.00    +0.139 A 
ATOM     19  C   UNL     1     -11.974  16.278  72.305  0.00  0.00    +0.037 A 
ATOM     20  C   UNL     1     -11.782  15.901  70.980  0.00  0.00    -0.001 A 
ATOM     21  C   UNL     1     -12.047  14.600  70.571  0.00  0.00    -0.021 A 
ATOM     22  C   UNL     1     -12.910  13.817  71.331  0.00  0.00    -0.001 A 
ATOM     23  C   UNL     1     -13.092  14.181  72.652  0.00  0.00    +0.037 A 
BRANCH  18  25
ATOM     24  C   UNL     1     -12.479  15.612  74.760  0.00  0.00    +0.252 C 
ATOM     25  O   UNL     1     -12.497  15.567  74.486  0.00  0.00    -0.471 OA
ENDBRANCH  18  25
ENDBRANCH  17  21
ENDBRANCH  15  17
ENDBRANCH  14  15
ENDBRANCH   1  14
TORSDOF 8
ENDMDL
MODEL 3
REMARK VINA RESULT:      -6.6      2.100      3.897
REMARK  Name = 
REMARK  8 active torsions:
REMARK  status: ('A' for Active; 'I' for Inactive)
REMARK    1  A    between atoms: O_2  and  C_3
REMARK    2  A    between atoms: C_6  and  C_7
REMARK    3  A    between atoms: C_7  and  C_8
REMARK    4  A    between atoms: C_8  and  N_10
REMARK    5  A    between atoms: N_10  and  C_11
REMARK    6  A    between atoms: C_11  and  C_12
REMARK    7  A    between atoms: C_12  and  C_14
REMARK    8  A    between atoms: C_19  and  N_20
REMARK                            x       y       z     vdW  Elec       q    Type
REMARK                         _______ _______ _______ _____ _____    ______ ____
ROOT
ATOM      1  C   UNL     1     -11.482  14.024  66.761  0.00  0.00    +0.126 C 
ENDROOT
BRANCH   1   2
ATOM      2  C   UNL     1     -11.710  14.161  65.116  0.00  0.00    +0.192 C 
ATOM      3  O   UNL     1     -13.204  13.833  65.240  0.00  0.00    -0.217 OA
BRANCH   2   4
ATOM      4  C   UNL     1     -11.296  12.606  64.861  0.00  0.00    +0.011 A 
ATOM      5  C   UNL     1     -11.188  11.845  65.993  0.00  0.00    +0.018 A 
ATOM      6  C   UNL     1     -10.558  10.614  65.839  0.00  0.00    +0.112 A 
ATOM      7  C   UNL     1      -9.961  10.264  64.634  0.00  0.00    +0.211 A 
ATOM      8  O   UNL     1      -9.040   9.214  64.550  0.00  0.00    -0.285 OA
ATOM      9  C   UNL     1     -10.368  10.963  63.505  0.00  0.00    +0.043 A 
ATOM     10  C   UNL     1     -10.888  12.249  63.626  0.00  0.00    +0.002 A 
BRANCH   6  11
ATOM     11  N   UNL     1     -10.473   9.712  66.925  0.00  0.00    -0.168 NA
ATOM     12  C   UNL     1      -9.694  10.093  68.047  0.00  0.00    +0.325 C 
ATOM     13  O   UNL     1      -8.565  10.580  67.846  0.00  0.00    -0.263 OA
ENDBRANCH   6  11
ENDBRANCH   2   4
ENDBRANCH   1   2
BRANCH   1  14
ATOM     14  N   UNL     1     -11.067  15.402  67.032  0.00  0.00    -0.216 NA
BRANCH  14  15
ATOM     15  C   UNL     1     -10.591  15.371  68.541  0.00  0.00    +0.077 C 
ATOM     16  C   UNL     1      -9.576  14.101  68.255  0.00  0.00    +0.019 C 
BRANCH  15  17
ATOM     17  C   UNL     1     -11.830  14.372  68.973  0.00  0.00    +0.044 C 
BRANCH  17  21
ATOM     18  C   UNL     1     -12.474  15.264  72.980  0.00  0.00    +0.139 A 
ATOM     19  C   UNL     1     -11.970  16.251  72.180  0.00  0.00    +0.037 A 
ATOM     20  C   UNL     1     -11.780  15.898  70.848  0.00  0.00    -0.001 A 
ATOM     21  C   UNL     1     -12.040  14.603  70.416  0.00  0.00    -0.021 A 
ATOM     22  C   UNL     1     -12.897  13.803  71.165  0.00  0.00    -0.001 A 
ATOM     23  C   UNL     1     -13.077  14.142  72.492  0.00  0.00    +0.037 A 
BRANCH  18  25
ATOM     24  C   UNL     1     -12.475  15.564  74.620  0.00  0.00    +0.252 C 
ATOM     25  O   UNL     1     -12.484  15.499  74.349  0.00  0.00    -0.471 OA
ENDBRANCH  18  25
ENDBRANCH  17  21
ENDBRANCH  15  17
ENDBRANCH  14  15
ENDBRANCH   1  14
TORSDOF 8
ENDMDL
MODEL 4
REMARK VINA RESULT:      -6.6      2.022      3.251
REMARK  Name = 
REMARK  8 active torsions:
REMARK  status: ('A' for Active; 'I' for Inactive)
REMARK    1  A    between atoms: O_2  and  C_3
REMARK    2  A    between atoms: C_6  and  C_7
REMARK    3  A    between atoms: C_7  and  C_8
REMARK    4  A    between atoms: C_8  and  N_10
REMARK    5  A    between atoms: N_10  and  C_11
REMARK    6  A    between atoms: C_11  and  C_12
REMARK    7  A    between atoms: C_12  and  C_14
REMARK    8  A    between atoms: C_19  and  N_20
REMARK                            x       y       z     vdW  Elec       q    Type
REMARK                         _______ _______ _______ _____ _____    ______ ____
ROOT
ATOM      1  C   UNL     1     -10.708  11.768  66.787  0.00  0.00    +0.126 C 
ENDROOT
BRANCH   1   2
ATOM      2  C   UNL     1     -11.868  12.935  66.522  0.00  0.00    +0.192 C 
ATOM      3  O   UNL     1     -11.675  12.858  65.001  0.00  0.00    -0.217 OA
BRANCH   2   4
ATOM      4  C   UNL     1     -10.788  14.143  66.690  0.00  0.00    +0.011 A 
ATOM      5  C   UNL     1     -11.181  15.345  66.167  0.00  0.00    +0.018 A 
ATOM      6  C   UNL     1     -10.182  16.303  66.030  0.00  0.00    +0.112 A 
ATOM      7  C   UNL     1      -8.852  15.989  66.284  0.00  0.00    +0.211 A 
ATOM      8  O   UNL     1      -7.808  16.802  65.832  0.00  0.00    -0.285 OA
ATOM      9  C   UNL     1      -8.611  14.863  67.061  0.00  0.00    +0.043 A 
ATOM     10  C   UNL     1      -9.546  13.833  67.115  0.00  0.00    +0.002 A 
BRANCH   6  11
ATOM     11  N   UNL     1     -10.496  17.608  65.584  0.00  0.00    -0.168 NA
ATOM     12  C   UNL     1     -10.439  18.666  66.526  0.00  0.00    +0.325 C 
ATOM     13  O   UNL     1     -10.962  18.491  67.644  0.00  0.00    -0.263 OA
ENDBRANCH   6  11
ENDBRANCH   2   4
ENDBRANCH   1   2
BRANCH   1  14
ATOM     14  N   UNL     1     -11.480  10.901  67.679  0.00  0.00    -0.216 NA
BRANCH  14  15
ATOM     15  C   UNL     1     -10.774  11.066  69.085  0.00  0.00    +0.077 C 
ATOM     16  C   UNL     1     -10.342   9.473  69.119  0.00  0.00    +0.019 C 
BRANCH  15  17
ATOM     17  C   UNL     1     -12.182  10.770  69.892  0.00  0.00    +0.044 C 
BRANCH  17  21
ATOM     18  C   UNL     1     -13.222  14.286  71.847  0.00  0.00    +0.139 A 
ATOM     19  C   UNL     1     -13.549  13.102  72.448  0.00  0.00    +0.037 A 
ATOM     20  C   UNL     1     -13.173  11.959  71.752  0.00  0.00    -0.001 A 
ATOM     21  C   UNL     1     -12.563  12.058  70.507  0.00  0.00    -0.021 A 
ATOM     22  C   UNL     1     -11.925  13.245  70.162  0.00  0.00    -0.001 A 
ATOM     23  C   UNL     1     -12.307  14.387  70.842  0.00  0.00    +0.037 A 
BRANCH  18  25
ATOM     24  C   UNL     1     -13.850  15.687  72.499  0.00  0.00    +0.252 C 
ATOM     25  O   UNL     1     -13.759  15.445  72.395  0.00  0.00    -0.471 OA
ENDBRANCH  18  25
ENDBRANCH  17  21
ENDBRANCH  15  17
ENDBRANCH  14  15
ENDBRANCH   1  14
TORSDOF 8
ENDMDL
MODEL 5
REMARK VINA RESULT:      -6.5      2.322      6.802
REMARK  Name = 
REMARK  8 active torsions:
REMARK  status: ('A' for Active; 'I' for Inactive)
REMARK    1  A    between atoms: O_2  and  C_3
REMARK    2  A    between atoms: C_6  and  C_7
REMARK    3  A    between atoms: C_7  and  C_8
REMARK    4  A    between atoms: C_8  and  N_10
REMARK    5  A    between atoms: N_10  and  C_11
REMARK    6  A    between atoms: C_11  and  C_12
REMARK    7  A    between atoms: C_12  and  C_14
REMARK    8  A    between atoms: C_19  and  N_20
REMARK                            x       y       z     vdW  Elec       q    Type
REMARK                         _______ _______ _______ _____ _____    ______ ____
ROOT
ATOM      1  C   UNL     1     -10.987  15.634  70.547  0.00  0.00    +0.126 C 
ENDROOT
BRANCH   1   2
ATOM      2  C   UNL     1     -12.576  15.332  70.143  0.00  0.00    +0.192 C 
ATOM      3  O   UNL     1     -13.083  15.949  71.453  0.00  0.00    -0.217 OA
BRANCH   2   4
ATOM      4  C   UNL     1     -12.520  13.828  70.765  0.00  0.00    +0.011 A 
ATOM      5  C   UNL     1     -11.764  12.937  70.052  0.00  0.00    +0.018 A 
ATOM      6  C   UNL     1     -11.932  11.596  70.383  0.00  0.00    +0.112 A 
ATOM      7  C   UNL     1     -12.913  11.202  71.285  0.00  0.00    +0.211 A 
ATOM      8  O   UNL     1     -13.334   9.871  71.374  0.00  0.00    -0.285 OA
ATOM      9  C   UNL     1     -13.412  12.179  72.137  0.00  0.00    +0.043 A 
ATOM     10  C   UNL     1     -13.365  13.521  71.770  0.00  0.00    +0.002 A 
BRANCH   6  11
ATOM     11  N   UNL     1     -11.135  10.601  69.771  0.00  0.00    -0.168 NA
ATOM     12  C   UNL     1     -10.979  10.646  68.362  0.00  0.00    +0.325 C 
ATOM     13  O   UNL     1     -11.993  10.832  67.661  0.00  0.00    -0.263 OA
ENDBRANCH   6  11
ENDBRANCH   2   4
ENDBRANCH   1   2
BRANCH   1  14
ATOM     14  N   UNL     1     -10.630  16.467  69.398  0.00  0.00    -0.216 NA
BRANCH  14  15
ATOM     15  C   UNL     1      -9.871  15.478  68.425  0.00  0.00    +0.077 C 
ATOM     16  C   UNL     1      -8.506  16.404  68.455  0.00  0.00    +0.019 C 
BRANCH  15  17
ATOM     17  C   UNL     1     -10.450  16.255  67.089  0.00  0.00    +0.044 C 
BRANCH  17  21
ATOM     18  C   UNL     1     -11.742  13.157  64.639  0.00  0.00    +0.139 A 
ATOM     19  C   UNL     1     -10.437  13.552  64.534  0.00  0.00    +0.037 A 
ATOM     20  C   UNL     1     -10.059  14.588  65.380  0.00  0.00    -0.001 A 
ATOM     21  C   UNL     1     -10.990  15.193  66.216  0.00  0.00    -0.021 A 
ATOM     22  C   UNL     1     -12.148  14.498  66.548  0.00  0.00    -0.001 A 
ATOM     23  C   UNL     1     -12.535  13.477  65.701  0.00  0.00    +0.037 A 
BRANCH  18  25
ATOM     24  C   UNL     1     -12.295  12.098  63.476  0.00  0.00    +0.252 C 
ATOM     25  O   UNL     1     -12.219  12.278  63.676  0.00  0.00    -0.471 OA
ENDBRANCH  18  25
ENDBRANCH  17  21
ENDBRANCH  15  17
ENDBRANCH  14  15
ENDBRANCH   1  14
TORSDOF 8
ENDMDL
MODEL 6
REMARK VINA RESULT:      -6.5      2.396      3.573
REMARK  Name = 
REMARK  8 active torsions:
REMARK  status: ('A' for Active; 'I' for Inactive)
REMARK    1  A    between atoms: O_2  and  C_3
REMARK    2  A    between atoms: C_6  and  C_7
REMARK    3  A    between atoms: C_7  and  C_8
REMARK    4  A    between atoms: C_8  and  N_10
REMARK    5  A    between atoms: N_10  and  C_11
REMARK    6  A    between atoms: C_11  and  C_12
REMARK    7  A    between atoms: C_12  and  C_14
REMARK    8  A    between atoms: C_19  and  N_20
REMARK                            x       y       z     vdW  Elec       q    Type
REMARK                         _______ _______ _______ _____ _____    ______ ____
ROOT
ATOM      1  C   UNL     1      -9.859  13.210  67.030  0.00  0.00    +0.126 C 
ENDROOT
BRANCH   1   2
ATOM      2  C   UNL     1      -8.304  13.810  67.030  0.00  0.00    +0.192 C 
ATOM      3  O   UNL     1      -8.274  13.883  68.563  0.00  0.00    -0.217 OA
BRANCH   2   4
ATOM      4  C   UNL     1      -8.825  15.346  66.876  0.00  0.00    +0.011 A 
ATOM      5  C   UNL     1      -8.369  16.208  67.836  0.00  0.00    +0.018 A 
ATOM      6  C   UNL     1      -9.018  17.437  67.906  0.00  0.00    +0.112 A 
ATOM      7  C   UNL     1     -10.145  17.693  67.135  0.00  0.00    +0.211 A 
ATOM      8  O   UNL     1     -11.007  18.755  67.427  0.00  0.00    -0.285 OA
ATOM      9  C   UNL     1     -10.341  16.885  66.022  0.00  0.00    +0.043 A 
ATOM     10  C   UNL     1      -9.802  15.602  65.983  0.00  0.00    +0.002 A 
BRANCH   6  11
ATOM     11  N   UNL     1      -8.569  18.435  68.802  0.00  0.00    -0.168 NA
ATOM     12  C   UNL     1      -7.844  19.531  68.269  0.00  0.00    +0.325 C 
ATOM     13  O   UNL     1      -6.937  19.297  67.447  0.00  0.00    -0.263 OA
ENDBRANCH   6  11
ENDBRANCH   2   4
ENDBRANCH   1   2
BRANCH   1  14
ATOM     14  N   UNL     1      -9.980  12.935  68.463  0.00  0.00    -0.216 NA
BRANCH  14  15
ATOM     15  C   UNL     1     -11.526  12.681  68.679  0.00  0.00    +0.077 C 
ATOM     16  C   UNL     1     -11.814  12.693  67.054  0.00  0.00    +0.019 C 
BRANCH  15  17
ATOM     17  C   UNL     1     -11.832  14.297  68.812  0.00  0.00    +0.044 C 
BRANCH  17  21
ATOM     18  C   UNL     1     -12.452  15.230  72.814  0.00  0.00    +0.139 A 
ATOM     19  C   UNL     1     -11.913  16.195  72.010  0.00  0.00    +0.037 A 
ATOM     20  C   UNL     1     -11.732  15.830  70.681  0.00  0.00    -0.001 A 
ATOM     21  C   UNL     1     -12.036  14.543  70.255  0.00  0.00    -0.021 A 
ATOM     22  C   UNL     1     -12.922  13.777  71.005  0.00  0.00    -0.001 A 
ATOM     23  C   UNL     1     -13.093  14.128  72.330  0.00  0.00    +0.037 A 
BRANCH  18  25
ATOM     24  C   UNL     1     -12.439  15.509  74.458  0.00  0.00    +0.252 C 
ATOM     25  O   UNL     1     -12.456  15.472  74.182  0.00  0.00    -0.471 OA
ENDBRANCH  18  25
ENDBRANCH  17  21
ENDBRANCH  15  17
ENDBRANCH  14  15
ENDBRANCH   1  14
TORSDOF 8
ENDMDL
MODEL 7
REMARK VINA RESULT:      -6.5      2.324      3.202
REMARK  Name = 
REMARK  8 active torsions:
REMARK  status: ('A' for Active; 'I' for Inactive)
REMARK    1  A    between atoms: O_2  and  C_3
REMARK    2  A    between atoms: C_6  and  C_7
REMARK    3  A    between atoms: C_7  and  C_8
REMARK    4  A    between atoms: C_8  and  N_10
REMARK    5  A    between atoms: N_10  and  C_11
REMARK    6  A    between atoms: C_11  and  C_12
REMARK    7  A    between atoms: C_12  and  C_14
REMARK    8  A    between atoms: C_19  and  N_20
REMARK                            x       y       z     vdW  Elec       q    Type
REMARK                         _______ _______ _______ _____ _____    ______ ____
ROOT
ATOM      1  C   UNL     1      -9.808  13.763  67.170  0.00  0.00    +0.126 C 
ENDROOT
BRANCH   1   2
ATOM      2  C   UNL     1      -8.144  13.686  67.219  0.00  0.00    +0.192 C 
ATOM      3  O   UNL     1      -8.133  13.726  68.754  0.00  0.00    -0.217 OA
BRANCH   2   4
ATOM      4  C   UNL     1      -7.997  15.302  67.084  0.00  0.00    +0.011 A 
ATOM      5  C   UNL     1      -9.121  15.949  66.648  0.00  0.00    +0.018 A 
ATOM      6  C   UNL     1      -8.945  17.269  66.244  0.00  0.00    +0.112 A 
ATOM      7  C   UNL     1      -7.674  17.826  66.164  0.00  0.00    +0.211 A 
ATOM      8  O   UNL     1      -7.434  19.002  65.446  0.00  0.00    -0.285 OA
ATOM      9  C   UNL     1      -6.666  17.196  66.882  0.00  0.00    +0.043 A 
ATOM     10  C   UNL     1      -6.765  15.842  67.191  0.00  0.00    +0.002 A 
BRANCH   6  11
ATOM     11  N   UNL     1     -10.055  18.056  65.861  0.00  0.00    -0.168 NA
ATOM     12  C   UNL     1     -10.573  18.981  66.803  0.00  0.00    +0.325 C 
ATOM     13  O   UNL     1     -10.743  18.597  67.976  0.00  0.00    -0.263 OA
ENDBRANCH   6  11
ENDBRANCH   2   4
ENDBRANCH   1   2
BRANCH   1  14
ATOM     14  N   UNL     1     -10.095  12.843  68.272  0.00  0.00    -0.216 NA
BRANCH  14  15
ATOM     15  C   UNL     1     -11.673  12.856  68.385  0.00  0.00    +0.077 C 
ATOM     16  C   UNL     1     -11.845  13.067  66.757  0.00  0.00    +0.019 C 
BRANCH  15  17
ATOM     17  C   UNL     1     -11.697  14.482  68.666  0.00  0.00    +0.044 C 
BRANCH  17  21
ATOM     18  C   UNL     1     -12.423  15.135  72.705  0.00  0.00    +0.139 A 
ATOM     19  C   UNL     1     -11.931  16.177  71.969  0.00  0.00    +0.037 A 
ATOM     20  C   UNL     1     -11.712  15.903  70.623  0.00  0.00    -0.001 A 
ATOM     21  C   UNL     1     -11.934  14.628  70.117  0.00  0.00    -0.021 A 
ATOM     22  C   UNL     1     -12.783  13.769  70.806  0.00  0.00    -0.001 A 
ATOM     23  C   UNL     1     -12.992  14.029  72.147  0.00  0.00    +0.037 A 
BRANCH  18  25
ATOM     24  C   UNL     1     -12.467  15.347  74.358  0.00  0.00    +0.252 C 
ATOM     25  O   UNL     1     -12.458  15.294  74.085  0.00  0.00    -0.471 OA
ENDBRANCH  18  25
ENDBRANCH  17  21
ENDBRANCH  15  17
ENDBRANCH  14  15
ENDBRANCH   1  14
TORSDOF 8
ENDMDL
MODEL 8
REMARK VINA RESULT:      -6.4      2.461      3.698
REMARK  Name = 
REMARK  8 active torsions:
REMARK  status: ('A' for Active; 'I' for Inactive)
REMARK    1  A    between atoms: O_2  and  C_3
REMARK    2  A    between atoms: C_6  and  C_7
REMARK    3  A    between atoms: C_7  and  C_8
REMARK    4  A    between atoms: C_8  and  N_10
REMARK    5  A    between atoms: N_10  and  C_11
REMARK    6  A    between atoms: C_11  and  C_12
REMARK    7  A    between atoms: C_12  and  C_14
REMARK    8  A    between atoms: C_19  and  N_20
REMARK                            x       y       z     vdW  Elec       q    Type
REMARK                         _______ _______ _______ _____ _____    ______ ____
ROOT
ATOM      1  C   UNL     1     -11.718  14.511  67.142  0.00  0.00    +0.126 C 
ENDROOT
BRANCH   1   2
ATOM      2  C   UNL     1     -11.093  15.025  65.685  0.00  0.00    +0.192 C 
ATOM      3  O   UNL     1     -10.039  13.908  65.681  0.00  0.00    -0.217 OA
BRANCH   2   4
ATOM      4  C   UNL     1     -10.095  16.089  66.410  0.00  0.00    +0.011 A 
ATOM      5  C   UNL     1      -8.789  16.021  66.009  0.00  0.00    +0.018 A 
ATOM      6  C   UNL     1      -7.872  16.698  66.807  0.00  0.00    +0.112 A 
ATOM      7  C   UNL     1      -8.264  17.281  68.006  0.00  0.00    +0.211 A 
ATOM      8  O   UNL     1      -7.331  17.655  68.979  0.00  0.00    -0.285 OA
ATOM      9  C   UNL     1      -9.621  17.533  68.168  0.00  0.00    +0.043 A 
ATOM     10  C   UNL     1     -10.562  16.781  67.469  0.00  0.00    +0.002 A 
BRANCH   6  11
ATOM     11  N   UNL     1      -6.510  16.767  66.434  0.00  0.00    -0.168 NA
ATOM     12  C   UNL     1      -6.036  17.974  65.860  0.00  0.00    +0.325 C 
ATOM     13  O   UNL     1      -6.720  18.513  64.969  0.00  0.00    -0.263 OA
ENDBRANCH   6  11
ENDBRANCH   2   4
ENDBRANCH   1   2
BRANCH   1  14
ATOM     14  N   UNL     1     -10.799  13.398  67.386  0.00  0.00    -0.216 NA
BRANCH  14  15
ATOM     15  C   UNL     1     -10.687  13.328  68.962  0.00  0.00    +0.077 C 
ATOM     16  C   UNL     1     -11.189  11.756  68.985  0.00  0.00    +0.019 C 
BRANCH  15  17
ATOM     17  C   UNL     1     -12.225  13.892  69.155  0.00  0.00    +0.044 C 
BRANCH  17  21
ATOM     18  C   UNL     1     -12.526  15.285  73.059  0.00  0.00    +0.139 A 
ATOM     19  C   UNL     1     -11.969  16.115  72.126  0.00  0.00    +0.037 A 
ATOM     20  C   UNL     1     -11.898  15.599  70.837  0.00  0.00    -0.001 A 
ATOM     21  C   UNL     1     -12.321  14.303  70.570  0.00  0.00    -0.021 A 
ATOM     22  C   UNL     1     -13.212  13.692  71.447  0.00  0.00    -0.001 A 
ATOM     23  C   UNL     1     -13.274  14.192  72.733  0.00  0.00    +0.037 A 
BRANCH  18  25
ATOM     24  C   UNL     1     -12.397  15.727  74.661  0.00  0.00    +0.252 C 
ATOM     25  O   UNL     1     -12.427  15.668  74.390  0.00  0.00    -0.471 OA
ENDBRANCH  18  25
ENDBRANCH  17  21
ENDBRANCH  15  17
ENDBRANCH  14  15
ENDBRANCH   1  14
TORSDOF 8
ENDMDL
MODEL 9
REMARK VINA RESULT:      -6.4      1.679      2.256
REMARK  Name = 
REMARK  8 active torsions:
REMARK  status: ('A' for Active; 'I' for Inactive)
REMARK    1  A    between atoms: O_2  and  C_3
REMARK    2  A    between atoms: C_6  and  C_7
REMARK    3  A    between atoms: C_7  and  C_8
REMARK    4  A    between atoms: C_8  and  N_10
REMARK    5  A    between atoms: N_10  and  C_11
REMARK    6  A    between atoms: C_11  and  C_12
REMARK    7  A    between atoms: C_12  and  C_14
REMARK    8  A    between atoms: C_19  and  N_20
REMARK                            x       y       z     vdW  Elec       q    Type
REMARK                         _______ _______ _______ _____ _____    ______ ____
ROOT
ATOM      1  C   UNL     1      -9.721  10.339  69.257  0.00  0.00    +0.126 C 
ENDROOT
BRANCH   1   2
ATOM      2  C   UNL     1      -9.625  10.084  67.613  0.00  0.00    +0.192 C 
ATOM      3  O   UNL     1      -8.165  10.558  67.570  0.00  0.00    -0.217 OA
BRANCH   2   4
ATOM      4  C   UNL     1     -10.213  11.566  67.280  0.00  0.00    +0.011 A 
ATOM      5  C   UNL     1     -11.246  11.588  66.384  0.00  0.00    +0.018 A 
ATOM      6  C   UNL     1     -11.570  12.836  65.861  0.00  0.00    +0.112 A 
ATOM      7  C   UNL     1     -10.787  13.950  66.138  0.00  0.00    +0.211 A 
ATOM      8  O   UNL     1     -10.873  15.116  65.370  0.00  0.00    -0.285 OA
ATOM      9  C   UNL     1      -9.961  13.875  67.253  0.00  0.00    +0.043 A 
ATOM     10  C   UNL     1      -9.524  12.639  67.721  0.00  0.00    +0.002 A 
BRANCH   6  11
ATOM     11  N   UNL     1     -12.678  12.985  64.995  0.00  0.00    -0.168 NA
ATOM     12  C   UNL     1     -12.623  12.350  63.728  0.00  0.00    +0.325 C 
ATOM     13  O   UNL     1     -11.578  12.455  63.058  0.00  0.00    -0.263 OA
ENDBRANCH   6  11
ENDBRANCH   2   4
ENDBRANCH   1   2
BRANCH   1  14
ATOM     14  N   UNL     1     -10.944   9.578  69.519  0.00  0.00    -0.216 NA
BRANCH  14  15
ATOM     15  C   UNL     1     -11.314   9.942  71.013  0.00  0.00    +0.077 C 
ATOM     16  C   UNL     1     -12.086   8.500  71.234  0.00  0.00    +0.019 C 
BRANCH  15  17
ATOM     17  C   UNL     1     -12.707  10.693  70.546  0.00  0.00    +0.044 C 
BRANCH  17  21
ATOM     18  C   UNL     1     -12.439  14.665  71.740  0.00  0.00    +0.139 A 
ATOM     19  C   UNL     1     -11.980  14.341  70.494  0.00  0.00    +0.037 A 
ATOM     20  C   UNL     1     -12.099  13.000  70.146  0.00  0.00    -0.001 A 
ATOM     21  C   UNL     1     -12.600  12.076  71.055  0.00  0.00    -0.021 A 
ATOM     22  C   UNL     1     -13.389  12.527  72.108  0.00  0.00    -0.001 A 
ATOM     23  C   UNL     1     -13.262  13.856  72.466  0.00  0.00    +0.037 A 
BRANCH  18  25
ATOM     24  C   UNL     1     -12.105  16.203  72.290  0.00  0.00    +0.252 C 
ATOM     25  O   UNL     1     -12.151  15.939  72.212  0.00  0.00    -0.471 OA
ENDBRANCH  18  25
ENDBRANCH  17  21
ENDBRANCH  15  17
ENDBRANCH  14  15
ENDBRANCH   1  14
TORSDOF 8
ENDMDL
