MODEL 1
REMARK VINA RESULT:      -6.3      0.000      0.000
REMARK  Name = 
REMARK  10 active torsions:
REMARK  status: ('A' for Active; 'I' for Inactive)
REMARK    1  A    between atoms: C_2  and  N_3
REMARK    2  A    between atoms: N_3  and  C_4
REMARK    3  A    between atoms: N_3  and  C_6
REMARK    4  A    between atoms: C_6  and  C_7
REMARK    5  A    between atoms: C_8  and  C_9
REMARK    6  A    between atoms: C_9  and  O_10
REMARK    7  A    between atoms: O_10  and  C_11
REMARK    8  A    between atoms: C_11  and  C_13
REMARK    9  A    between atoms: C_13  and  C_15
REMARK   10  A    between atoms: C_13  and  C_21
REMARK                            x       y       z     vdW  Elec       q    Type
REMARK                         _______ _______ _______ _____ _____    ______ ____
ROOT
ATOM      1  C   UNL     1     -10.673  12.785  67.331  0.00  0.00    +0.233 C 
ATOM      2  O   UNL     1      -9.446  12.772  66.665  0.00  0.00    -0.210 OA
ENDROOT
BRANCH   1   3
ATOM      3  C   UNL     1     -10.773  14.084  68.028  0.00  0.00    +0.015 A 
ATOM      4  C   UNL     1      -9.598  14.819  68.125  0.00  0.00    -0.001 A 
ATOM      5  C   UNL     1      -9.550  16.070  68.702  0.00  0.00    -0.000 A 
ATOM      6  C   UNL     1     -10.757  16.575  69.165  0.00  0.00    -0.000 A 
ATOM      7  C   UNL     1     -11.908  15.798  69.166  0.00  0.00    -0.000 A 
ATOM      8  C   UNL     1     -11.856  14.480  68.773  0.00  0.00    -0.001 A 
ENDBRANCH   1   3
BRANCH   1   9
ATOM      9  C   UNL     1     -11.743  12.587  66.295  0.00  0.00    +0.043 C 
ATOM     10  C   UNL     1     -12.349  13.878  65.819  0.00  0.00    +0.003 C 
ATOM     11  C   UNL     1     -11.897  14.259  64.432  0.00  0.00    +0.000 C 
ATOM     12  C   UNL     1     -12.151  13.166  63.424  0.00  0.00    +0.000 C 
ATOM     13  C   UNL     1     -12.137  11.791  64.031  0.00  0.00    +0.000 C 
ATOM     14  C   UNL     1     -11.108  11.804  65.152  0.00  0.00    +0.003 C 
ENDBRANCH   1   9
BRANCH   1  15
ATOM     15  C   UNL     1     -10.790  11.662  68.304  0.00  0.00    +0.350 C 
ATOM     16  O   UNL     1      -9.746  11.095  68.749  0.00  0.00    -0.247 OA
BRANCH  15  17
ATOM     17  O   UNL     1     -11.979  10.965  68.510  0.00  0.00    -0.432 OA
BRANCH  17  18
ATOM     18  C   UNL     1     -12.254  10.573  69.853  0.00  0.00    +0.284 C 
BRANCH  18  20
ATOM     19  C   UNL     1     -12.870  12.555  71.467  0.00  0.00    -0.069 C 
ATOM     20  C   UNL     1     -12.421  11.832  70.600  0.00  0.00    -0.042 C 
BRANCH  19  21
ATOM     21  C   UNL     1     -13.635  13.299  72.485  0.00  0.00    +0.150 C 
BRANCH  21  22
ATOM     22  N   UNL     1     -13.156  14.676  72.479  0.00  0.00    -0.262 NA
BRANCH  22  23
ATOM     23  C   UNL     1     -14.229  15.631  72.476  0.00  0.00    +0.073 C 
ATOM     24  C   UNL     1     -15.201  15.207  71.380  0.00  0.00    +0.019 C 
ENDBRANCH  22  23
BRANCH  22  26
ATOM     25  C   UNL     1     -12.504  15.543  74.270  0.00  0.00    +0.019 C 
ATOM     26  C   UNL     1     -12.161  14.919  73.491  0.00  0.00    +0.073 C 
ENDBRANCH  22  26
ENDBRANCH  21  22
ENDBRANCH  19  21
ENDBRANCH  18  20
ENDBRANCH  17  18
ENDBRANCH  15  17
ENDBRANCH   1  15
TORSDOF 10
ENDMDL
MODEL 2
REMARK VINA RESULT:      -6.2      1.324      3.883
REMARK  Name = 
REMARK  10 active torsions:
REMARK  status: ('A' for Active; 'I' for Inactive)
REMARK    1  A    between atoms: C_2  and  N_3
REMARK    2  A    between atoms: N_3  and  C_4
REMARK    3  A    between atoms: N_3  and  C_6
REMARK    4  A    between atoms: C_6  and  C_7
REMARK    5  A    between atoms: C_8  and  C_9
REMARK    6  A    between atoms: C_9  and  O_10
REMARK    7  A    between atoms: O_10  and  C_11
REMARK    8  A    between atoms: C_11  and  C_13
REMARK    9  A    between atoms: C_13  and  C_15
REMARK   10  A    between atoms: C_13  and  C_21
REMARK                            x       y       z     vdW  Elec       q    Type
REMARK                         _______ _______ _______ _____ _____    ______ ____
ROOT
ATOM      1  C   UNL     1     -11.184  13.084  67.019  0.00  0.00    +0.233 C 
ATOM      2  O   UNL     1     -12.429  13.688  67.210  0.00  0.00    -0.210 OA
ENDROOT
BRANCH   1   3
ATOM      3  C   UNL     1     -11.208  12.454  65.683  0.00  0.00    +0.015 A 
ATOM      4  C   UNL     1     -12.313  12.740  64.892  0.00  0.00    -0.001 A 
ATOM      5  C   UNL     1     -12.448  12.265  63.605  0.00  0.00    -0.000 A 
ATOM      6  C   UNL     1     -11.396  11.497  63.125  0.00  0.00    -0.000 A 
ATOM      7  C   UNL     1     -10.344  11.123  63.951  0.00  0.00    -0.000 A 
ATOM      8  C   UNL     1     -10.362  11.447  65.287  0.00  0.00    -0.001 A 
ENDBRANCH   1   3
BRANCH   1   9
ATOM      9  C   UNL     1     -10.144  14.162  67.146  0.00  0.00    +0.043 C 
ATOM     10  C   UNL     1      -9.783  14.789  65.828  0.00  0.00    +0.003 C 
ATOM     11  C   UNL     1     -10.354  16.176  65.666  0.00  0.00    +0.000 C 
ATOM     12  C   UNL     1      -9.968  17.093  66.800  0.00  0.00    +0.000 C 
ATOM     13  C   UNL     1      -9.725  16.363  68.091  0.00  0.00    +0.000 C 
ATOM     14  C   UNL     1     -10.691  15.187  68.132  0.00  0.00    +0.003 C 
ENDBRANCH   1   9
BRANCH   1  15
ATOM     15  C   UNL     1     -10.893  12.067  68.070  0.00  0.00    +0.350 C 
ATOM     16  O   UNL     1      -9.697  11.843  68.424  0.00  0.00    -0.247 OA
BRANCH  15  17
ATOM     17  O   UNL     1     -11.821  11.103  68.461  0.00  0.00    -0.432 OA
BRANCH  17  18
ATOM     18  C   UNL     1     -11.774  10.703  69.828  0.00  0.00    +0.284 C 
BRANCH  18  20
ATOM     19  C   UNL     1     -12.498  12.953  70.981  0.00  0.00    -0.069 C 
ATOM     20  C   UNL     1     -12.389  11.811  70.580  0.00  0.00    -0.042 C 
BRANCH  19  21
ATOM     21  C   UNL     1     -12.370  14.338  71.473  0.00  0.00    +0.150 C 
BRANCH  21  22
ATOM     22  N   UNL     1     -13.453  14.571  72.421  0.00  0.00    -0.262 NA
BRANCH  22  23
ATOM     23  C   UNL     1     -13.312  15.819  73.118  0.00  0.00    +0.073 C 
ATOM     24  C   UNL     1     -12.423  15.557  74.328  0.00  0.00    +0.019 C 
ENDBRANCH  22  23
BRANCH  22  26
ATOM     25  C   UNL     1     -15.175  15.260  71.451  0.00  0.00    +0.019 C 
ATOM     26  C   UNL     1     -14.752  14.372  71.834  0.00  0.00    +0.073 C 
ENDBRANCH  22  26
ENDBRANCH  21  22
ENDBRANCH  19  21
ENDBRANCH  18  20
ENDBRANCH  17  18
ENDBRANCH  15  17
ENDBRANCH   1  15
TORSDOF 10
ENDMDL
MODEL 3
REMARK VINA RESULT:      -6.0      2.647      4.654
REMARK  Name = 
REMARK  10 active torsions:
REMARK  status: ('A' for Active; 'I' for Inactive)
REMARK    1  A    between atoms: C_2  and  N_3
REMARK    2  A    between atoms: N_3  and  C_4
REMARK    3  A    between atoms: N_3  and  C_6
REMARK    4  A    between atoms: C_6  and  C_7
REMARK    5  A    between atoms: C_8  and  C_9
REMARK    6  A    between atoms: C_9  and  O_10
REMARK    7  A    between atoms: O_10  and  C_11
REMARK    8  A    between atoms: C_11  and  C_13
REMARK    9  A    between atoms: C_13  and  C_15
REMARK   10  A    between atoms: C_13  and  C_21
REMARK                            x       y       z     vdW  Elec       q    Type
REMARK                         _______ _______ _______ _____ _____    ______ ____
ROOT
ATOM      1  C   UNL     1      -9.002  16.328  66.771  0.00  0.00    +0.233 C 
ATOM      2  O   UNL     1      -8.428  16.789  65.584  0.00  0.00    -0.210 OA
ENDROOT
BRANCH   1   3
ATOM      3  C   UNL     1      -7.895  15.880  67.641  0.00  0.00    +0.015 A 
ATOM      4  C   UNL     1      -6.614  16.222  67.227  0.00  0.00    -0.001 A 
ATOM      5  C   UNL     1      -5.489  15.917  67.963  0.00  0.00    -0.000 A 
ATOM      6  C   UNL     1      -5.708  15.264  69.169  0.00  0.00    -0.000 A 
ATOM      7  C   UNL     1      -6.976  14.828  69.530  0.00  0.00    -0.000 A 
ATOM      8  C   UNL     1      -8.033  14.971  68.661  0.00  0.00    -0.001 A 
ENDBRANCH   1   3
BRANCH   1   9
ATOM      9  C   UNL     1      -9.790  17.467  67.355  0.00  0.00    +0.043 C 
ATOM     10  C   UNL     1      -9.063  18.180  68.461  0.00  0.00    +0.003 C 
ATOM     11  C   UNL     1      -8.538  19.529  68.041  0.00  0.00    +0.000 C 
ATOM     12  C   UNL     1      -9.620  20.417  67.477  0.00  0.00    +0.000 C 
ATOM     13  C   UNL     1     -10.740  19.645  66.837  0.00  0.00    +0.000 C 
ATOM     14  C   UNL     1     -10.126  18.405  66.201  0.00  0.00    +0.003 C 
ENDBRANCH   1   9
BRANCH   1  15
ATOM     15  C   UNL     1      -9.959  15.211  66.528  0.00  0.00    +0.350 C 
ATOM     16  O   UNL     1      -9.677  14.303  65.689  0.00  0.00    -0.247 OA
BRANCH  15  17
ATOM     17  O   UNL     1     -11.296  15.267  66.916  0.00  0.00    -0.432 OA
BRANCH  17  18
ATOM     18  C   UNL     1     -11.698  14.344  67.925  0.00  0.00    +0.284 C 
BRANCH  18  20
ATOM     19  C   UNL     1     -11.511  15.189  70.408  0.00  0.00    -0.069 C 
ATOM     20  C   UNL     1     -11.543  15.067  69.200  0.00  0.00    -0.042 C 
BRANCH  19  21
ATOM     21  C   UNL     1     -11.663  15.161  71.875  0.00  0.00    +0.150 C 
BRANCH  21  22
ATOM     22  N   UNL     1     -13.051  15.487  72.182  0.00  0.00    -0.262 NA
BRANCH  22  23
ATOM     23  C   UNL     1     -13.958  14.439  71.804  0.00  0.00    +0.073 C 
ATOM     24  C   UNL     1     -15.262  15.107  71.385  0.00  0.00    +0.019 C 
ENDBRANCH  22  23
BRANCH  22  26
ATOM     25  C   UNL     1     -12.445  15.642  74.180  0.00  0.00    +0.019 C 
ATOM     26  C   UNL     1     -13.222  15.949  73.535  0.00  0.00    +0.073 C 
ENDBRANCH  22  26
ENDBRANCH  21  22
ENDBRANCH  19  21
ENDBRANCH  18  20
ENDBRANCH  17  18
ENDBRANCH  15  17
ENDBRANCH   1  15
TORSDOF 10
ENDMDL
MODEL 4
REMARK VINA RESULT:      -5.9      2.770      5.709
REMARK  Name = 
REMARK  10 active torsions:
REMARK  status: ('A' for Active; 'I' for Inactive)
REMARK    1  A    between atoms: C_2  and  N_3
REMARK    2  A    between atoms: N_3  and  C_4
REMARK    3  A    between atoms: N_3  and  C_6
REMARK    4  A    between atoms: C_6  and  C_7
REMARK    5  A    between atoms: C_8  and  C_9
REMARK    6  A    between atoms: C_9  and  O_10
REMARK    7  A    between atoms: O_10  and  C_11
REMARK    8  A    between atoms: C_11  and  C_13
REMARK    9  A    between atoms: C_13  and  C_15
REMARK   10  A    between atoms: C_13  and  C_21
REMARK                            x       y       z     vdW  Elec       q    Type
REMARK                         _______ _______ _______ _____ _____    ______ ____
ROOT
ATOM      1  C   UNL     1     -11.476  14.950  69.344  0.00  0.00    +0.233 C 
ATOM      2  O   UNL     1     -12.555  15.794  69.073  0.00  0.00    -0.210 OA
ENDROOT
BRANCH   1   3
ATOM      3  C   UNL     1     -10.245  15.735  69.116  0.00  0.00    +0.015 A 
ATOM      4  C   UNL     1     -10.424  17.050  68.707  0.00  0.00    -0.001 A 
ATOM      5  C   UNL     1      -9.371  17.916  68.506  0.00  0.00    -0.000 A 
ATOM      6  C   UNL     1      -8.105  17.406  68.762  0.00  0.00    -0.000 A 
ATOM      7  C   UNL     1      -7.919  16.064  69.067  0.00  0.00    -0.000 A 
ATOM      8  C   UNL     1      -8.985  15.193  69.048  0.00  0.00    -0.001 A 
ENDBRANCH   1   3
BRANCH   1   9
ATOM      9  C   UNL     1     -11.624  14.481  70.764  0.00  0.00    +0.043 C 
ATOM     10  C   UNL     1     -11.100  15.470  71.768  0.00  0.00    +0.003 C 
ATOM     11  C   UNL     1     -12.200  16.188  72.509  0.00  0.00    +0.000 C 
ATOM     12  C   UNL     1     -13.162  15.235  73.175  0.00  0.00    +0.000 C 
ATOM     13  C   UNL     1     -13.266  13.914  72.466  0.00  0.00    +0.000 C 
ATOM     14  C   UNL     1     -13.104  14.187  70.977  0.00  0.00    +0.003 C 
ENDBRANCH   1   9
BRANCH   1  15
ATOM     15  C   UNL     1     -11.488  13.737  68.478  0.00  0.00    +0.350 C 
ATOM     16  O   UNL     1     -12.221  13.702  67.443  0.00  0.00    -0.247 OA
BRANCH  15  17
ATOM     17  O   UNL     1     -11.000  12.503  68.903  0.00  0.00    -0.432 OA
BRANCH  17  18
ATOM     18  C   UNL     1     -11.908  11.407  68.827  0.00  0.00    +0.284 C 
BRANCH  18  20
ATOM     19  C   UNL     1     -12.165   9.970  71.015  0.00  0.00    -0.069 C 
ATOM     20  C   UNL     1     -11.825  10.741  70.140  0.00  0.00    -0.042 C 
BRANCH  19  21
ATOM     21  C   UNL     1     -12.820   9.091  72.001  0.00  0.00    +0.150 C 
BRANCH  21  22
ATOM     22  N   UNL     1     -13.016   7.790  71.372  0.00  0.00    -0.262 NA
BRANCH  22  23
ATOM     23  C   UNL     1     -12.077   6.808  71.837  0.00  0.00    +0.073 C 
ATOM     24  C   UNL     1     -11.310   6.311  70.617  0.00  0.00    +0.019 C 
ENDBRANCH  22  23
BRANCH  22  26
ATOM     25  C   UNL     1     -15.000   7.977  72.017  0.00  0.00    +0.019 C 
ATOM     26  C   UNL     1     -14.389   7.356  71.420  0.00  0.00    +0.073 C 
ENDBRANCH  22  26
ENDBRANCH  21  22
ENDBRANCH  19  21
ENDBRANCH  18  20
ENDBRANCH  17  18
ENDBRANCH  15  17
ENDBRANCH   1  15
TORSDOF 10
ENDMDL
MODEL 5
REMARK VINA RESULT:      -5.9      2.707      5.373
REMARK  Name = 
REMARK  10 active torsions:
REMARK  status: ('A' for Active; 'I' for Inactive)
REMARK    1  A    between atoms: C_2  and  N_3
REMARK    2  A    between atoms: N_3  and  C_4
REMARK    3  A    between atoms: N_3  and  C_6
REMARK    4  A    between atoms: C_6  and  C_7
REMARK    5  A    between atoms: C_8  and  C_9
REMARK    6  A    between atoms: C_9  and  O_10
REMARK    7  A    between atoms: O_10  and  C_11
REMARK    8  A    between atoms: C_11  and  C_13
REMARK    9  A    between atoms: C_13  and  C_15
REMARK   10  A    between atoms: C_13  and  C_21
REMARK                            x       y       z     vdW  Elec       q    Type
REMARK                         _______ _______ _______ _____ _____    ______ ____
ROOT
ATOM      1  C   UNL     1     -11.392  12.980  66.890  0.00  0.00    +0.233 C 
ATOM      2  O   UNL     1     -12.085  11.767  66.885  0.00  0.00    -0.210 OA
ENDROOT
BRANCH   1   3
ATOM      3  C   UNL     1     -11.635  13.612  68.203  0.00  0.00    +0.015 A 
ATOM      4  C   UNL     1     -12.000  12.758  69.236  0.00  0.00    -0.001 A 
ATOM      5  C   UNL     1     -12.208  13.197  70.525  0.00  0.00    -0.000 A 
ATOM      6  C   UNL     1     -12.008  14.553  70.747  0.00  0.00    -0.000 A 
ATOM      7  C   UNL     1     -11.750  15.423  69.696  0.00  0.00    -0.000 A 
ATOM      8  C   UNL     1     -11.760  14.966  68.398  0.00  0.00    -0.001 A 
ENDBRANCH   1   3
BRANCH   1   9
ATOM      9  C   UNL     1      -9.943  12.665  66.645  0.00  0.00    +0.043 C 
ATOM     10  C   UNL     1      -9.105  12.742  67.890  0.00  0.00    +0.003 C 
ATOM     11  C   UNL     1      -8.705  11.384  68.410  0.00  0.00    +0.000 C 
ATOM     12  C   UNL     1      -8.005  10.552  67.365  0.00  0.00    +0.000 C 
ATOM     13  C   UNL     1      -8.424  10.893  65.963  0.00  0.00    +0.000 C 
ATOM     14  C   UNL     1      -9.896  11.279  66.014  0.00  0.00    +0.003 C 
ENDBRANCH   1   9
BRANCH   1  15
ATOM     15  C   UNL     1     -11.839  13.879  65.788  0.00  0.00    +0.350 C 
ATOM     16  O   UNL     1     -13.054  13.883  65.424  0.00  0.00    -0.247 OA
BRANCH  15  17
ATOM     17  O   UNL     1     -10.950  14.481  64.899  0.00  0.00    -0.432 OA
BRANCH  17  18
ATOM     18  C   UNL     1     -10.814  15.896  65.006  0.00  0.00    +0.284 C 
BRANCH  18  20
ATOM     19  C   UNL     1      -8.907  16.381  66.751  0.00  0.00    -0.069 C 
ATOM     20  C   UNL     1      -9.573  16.112  65.771  0.00  0.00    -0.042 C 
BRANCH  19  21
ATOM     21  C   UNL     1      -8.288  16.878  67.993  0.00  0.00    +0.150 C 
BRANCH  21  22
ATOM     22  N   UNL     1      -8.525  18.315  68.061  0.00  0.00    -0.262 NA
BRANCH  22  23
ATOM     23  C   UNL     1      -9.843  18.633  68.536  0.00  0.00    +0.073 C 
ATOM     24  C   UNL     1     -10.498  19.516  67.480  0.00  0.00    +0.019 C 
ENDBRANCH  22  23
BRANCH  22  26
ATOM     25  C   UNL     1      -6.829  19.542  68.095  0.00  0.00    +0.019 C 
ATOM     26  C   UNL     1      -7.471  19.017  68.747  0.00  0.00    +0.073 C 
ENDBRANCH  22  26
ENDBRANCH  21  22
ENDBRANCH  19  21
ENDBRANCH  18  20
ENDBRANCH  17  18
ENDBRANCH  15  17
ENDBRANCH   1  15
TORSDOF 10
ENDMDL
MODEL 6
REMARK VINA RESULT:      -5.9      4.249      6.733
REMARK  Name = 
REMARK  10 active torsions:
REMARK  status: ('A' for Active; 'I' for Inactive)
REMARK    1  A    between atoms: C_2  and  N_3
REMARK    2  A    between atoms: N_3  and  C_4
REMARK    3  A    between atoms: N_3  and  C_6
REMARK    4  A    between atoms: C_6  and  C_7
REMARK    5  A    between atoms: C_8  and  C_9
REMARK    6  A    between atoms: C_9  and  O_10
REMARK    7  A    between atoms: O_10  and  C_11
REMARK    8  A    between atoms: C_11  and  C_13
REMARK    9  A    between atoms: C_13  and  C_15
REMARK   10  A    between atoms: C_13  and  C_21
REMARK                            x       y       z     vdW  Elec       q    Type
REMARK                         _______ _______ _______ _____ _____    ______ ____
ROOT
ATOM      1  C   UNL     1     -10.411  15.932  66.592  0.00  0.00    +0.233 C 
ATOM      2  O   UNL     1     -11.323  15.960  67.650  0.00  0.00    -0.210 OA
ENDROOT
BRANCH   1   3
ATOM      3  C   UNL     1      -9.059  15.923  67.187  0.00  0.00    +0.015 A 
ATOM      4  C   UNL     1      -8.999  15.795  68.568  0.00  0.00    -0.001 A 
ATOM      5  C   UNL     1      -7.806  15.720  69.256  0.00  0.00    -0.000 A 
ATOM      6  C   UNL     1      -6.653  15.755  68.483  0.00  0.00    -0.000 A 
ATOM      7  C   UNL     1      -6.712  15.991  67.116  0.00  0.00    -0.000 A 
ATOM      8  C   UNL     1      -7.915  16.270  66.510  0.00  0.00    -0.001 A 
ENDBRANCH   1   3
BRANCH   1   9
ATOM      9  C   UNL     1     -10.709  14.702  65.782  0.00  0.00    +0.043 C 
ATOM     10  C   UNL     1      -9.681  13.619  65.956  0.00  0.00    +0.003 C 
ATOM     11  C   UNL     1     -10.178  12.471  66.797  0.00  0.00    +0.000 C 
ATOM     12  C   UNL     1     -11.463  11.884  66.268  0.00  0.00    +0.000 C 
ATOM     13  C   UNL     1     -12.301  12.882  65.518  0.00  0.00    +0.000 C 
ATOM     14  C   UNL     1     -12.101  14.233  66.191  0.00  0.00    +0.003 C 
ENDBRANCH   1   9
BRANCH   1  15
ATOM     15  C   UNL     1     -10.575  17.105  65.687  0.00  0.00    +0.350 C 
ATOM     16  O   UNL     1     -11.021  16.943  64.511  0.00  0.00    -0.247 OA
BRANCH  15  17
ATOM     17  O   UNL     1      -9.961  18.333  65.927  0.00  0.00    -0.432 OA
BRANCH  17  18
ATOM     18  C   UNL     1     -10.660  19.229  66.787  0.00  0.00    +0.284 C 
BRANCH  18  20
ATOM     19  C   UNL     1      -8.658  19.551  68.462  0.00  0.00    -0.069 C 
ATOM     20  C   UNL     1      -9.736  19.499  67.903  0.00  0.00    -0.042 C 
BRANCH  19  21
ATOM     21  C   UNL     1      -7.297  19.397  69.007  0.00  0.00    +0.150 C 
BRANCH  21  22
ATOM     22  N   UNL     1      -6.357  19.588  67.909  0.00  0.00    -0.262 NA
BRANCH  22  23
ATOM     23  C   UNL     1      -6.362  20.934  67.409  0.00  0.00    +0.073 C 
ATOM     24  C   UNL     1      -6.183  20.851  65.898  0.00  0.00    +0.019 C 
ENDBRANCH  22  23
BRANCH  22  26
ATOM     25  C   UNL     1      -4.866  18.983  69.249  0.00  0.00    +0.019 C 
ATOM     26  C   UNL     1      -5.043  19.081  68.213  0.00  0.00    +0.073 C 
ENDBRANCH  22  26
ENDBRANCH  21  22
ENDBRANCH  19  21
ENDBRANCH  18  20
ENDBRANCH  17  18
ENDBRANCH  15  17
ENDBRANCH   1  15
TORSDOF 10
ENDMDL
MODEL 7
REMARK VINA RESULT:      -5.8      2.449      4.148
REMARK  Name = 
REMARK  10 active torsions:
REMARK  status: ('A' for Active; 'I' for Inactive)
REMARK    1  A    between atoms: C_2  and  N_3
REMARK    2  A    between atoms: N_3  and  C_4
REMARK    3  A    between atoms: N_3  and  C_6
REMARK    4  A    between atoms: C_6  and  C_7
REMARK    5  A    between atoms: C_8  and  C_9
REMARK    6  A    between atoms: C_9  and  O_10
REMARK    7  A    between atoms: O_10  and  C_11
REMARK    8  A    between atoms: C_11  and  C_13
REMARK    9  A    between atoms: C_13  and  C_15
REMARK   10  A    between atoms: C_13  and  C_21
REMARK                            x       y       z     vdW  Elec       q    Type
REMARK                         _______ _______ _______ _____ _____    ______ ____
ROOT
ATOM      1  C   UNL     1     -10.265  13.092  67.313  0.00  0.00    +0.233 C 
ATOM      2  O   UNL     1      -9.392  13.941  66.628  0.00  0.00    -0.210 OA
ENDROOT
BRANCH   1   3
ATOM      3  C   UNL     1     -10.966  13.912  68.321  0.00  0.00    +0.015 A 
ATOM      4  C   UNL     1     -10.687  15.273  68.304  0.00  0.00    -0.001 A 
ATOM      5  C   UNL     1     -11.305  16.169  69.151  0.00  0.00    -0.000 A 
ATOM      6  C   UNL     1     -12.251  15.636  70.017  0.00  0.00    -0.000 A 
ATOM      7  C   UNL     1     -12.451  14.265  70.107  0.00  0.00    -0.000 A 
ATOM      8  C   UNL     1     -11.658  13.399  69.390  0.00  0.00    -0.001 A 
ENDBRANCH   1   3
BRANCH   1   9
ATOM      9  C   UNL     1     -11.190  12.491  66.292  0.00  0.00    +0.043 C 
ATOM     10  C   UNL     1     -12.307  13.415  65.893  0.00  0.00    +0.003 C 
ATOM     11  C   UNL     1     -12.118  13.999  64.516  0.00  0.00    +0.000 C 
ATOM     12  C   UNL     1     -11.924  12.937  63.462  0.00  0.00    +0.000 C 
ATOM     13  C   UNL     1     -11.301  11.680  64.002  0.00  0.00    +0.000 C 
ATOM     14  C   UNL     1     -10.329  12.094  65.099  0.00  0.00    +0.003 C 
ENDBRANCH   1   9
BRANCH   1  15
ATOM     15  C   UNL     1      -9.542  11.965  67.968  0.00  0.00    +0.350 C 
ATOM     16  O   UNL     1      -8.333  12.105  68.323  0.00  0.00    -0.247 OA
BRANCH  15  17
ATOM     17  O   UNL     1     -10.000  10.649  67.924  0.00  0.00    -0.432 OA
BRANCH  17  18
ATOM     18  C   UNL     1      -9.532   9.785  68.956  0.00  0.00    +0.284 C 
BRANCH  18  20
ATOM     19  C   UNL     1     -11.239   9.599  70.949  0.00  0.00    -0.069 C 
ATOM     20  C   UNL     1     -10.481   9.961  70.071  0.00  0.00    -0.042 C 
BRANCH  19  21
ATOM     21  C   UNL     1     -12.221   8.968  71.851  0.00  0.00    +0.150 C 
BRANCH  21  22
ATOM     22  N   UNL     1     -12.630   7.707  71.246  0.00  0.00    -0.262 NA
BRANCH  22  23
ATOM     23  C   UNL     1     -11.590   6.716  71.285  0.00  0.00    +0.073 C 
ATOM     24  C   UNL     1     -11.388   6.224  69.856  0.00  0.00    +0.019 C 
ENDBRANCH  22  23
BRANCH  22  26
ATOM     25  C   UNL     1     -14.692   7.910  71.543  0.00  0.00    +0.019 C 
ATOM     26  C   UNL     1     -13.899   7.243  71.743  0.00  0.00    +0.073 C 
ENDBRANCH  22  26
ENDBRANCH  21  22
ENDBRANCH  19  21
ENDBRANCH  18  20
ENDBRANCH  17  18
ENDBRANCH  15  17
ENDBRANCH   1  15
TORSDOF 10
ENDMDL
MODEL 8
REMARK VINA RESULT:      -5.7      1.387      4.490
REMARK  Name = 
REMARK  10 active torsions:
REMARK  status: ('A' for Active; 'I' for Inactive)
REMARK    1  A    between atoms: C_2  and  N_3
REMARK    2  A    between atoms: N_3  and  C_4
REMARK    3  A    between atoms: N_3  and  C_6
REMARK    4  A    between atoms: C_6  and  C_7
REMARK    5  A    between atoms: C_8  and  C_9
REMARK    6  A    between atoms: C_9  and  O_10
REMARK    7  A    between atoms: O_10  and  C_11
REMARK    8  A    between atoms: C_11  and  C_13
REMARK    9  A    between atoms: C_13  and  C_15
REMARK   10  A    between atoms: C_13  and  C_21
REMARK                            x       y       z     vdW  Elec       q    Type
REMARK                         _______ _______ _______ _____ _____    ______ ____
ROOT
ATOM      1  C   UNL     1     -10.830  12.546  67.190  0.00  0.00    +0.233 C 
ATOM      2  O   UNL     1      -9.494  12.273  67.492  0.00  0.00    -0.210 OA
ENDROOT
BRANCH   1   3
ATOM      3  C   UNL     1     -11.026  12.220  65.763  0.00  0.00    +0.015 A 
ATOM      4  C   UNL     1      -9.891  11.831  65.062  0.00  0.00    -0.001 A 
ATOM      5  C   UNL     1      -9.930  11.448  63.738  0.00  0.00    -0.000 A 
ATOM      6  C   UNL     1     -11.183  11.447  63.140  0.00  0.00    -0.000 A 
ATOM      7  C   UNL     1     -12.298  11.937  63.808  0.00  0.00    -0.000 A 
ATOM      8  C   UNL     1     -12.168  12.504  65.054  0.00  0.00    -0.001 A 
ENDBRANCH   1   3
BRANCH   1   9
ATOM      9  C   UNL     1     -11.673  11.708  68.109  0.00  0.00    +0.043 C 
ATOM     10  C   UNL     1     -11.299  10.252  68.088  0.00  0.00    +0.003 C 
ATOM     11  C   UNL     1     -10.560   9.821  69.329  0.00  0.00    +0.000 C 
ATOM     12  C   UNL     1     -11.320  10.141  70.592  0.00  0.00    +0.000 C 
ATOM     13  C   UNL     1     -12.223  11.334  70.449  0.00  0.00    +0.000 C 
ATOM     14  C   UNL     1     -11.534  12.309  69.503  0.00  0.00    +0.003 C 
ENDBRANCH   1   9
BRANCH   1  15
ATOM     15  C   UNL     1     -11.178  13.971  67.452  0.00  0.00    +0.350 C 
ATOM     16  O   UNL     1     -12.267  14.451  67.012  0.00  0.00    -0.247 OA
BRANCH  15  17
ATOM     17  O   UNL     1     -10.237  14.913  67.865  0.00  0.00    -0.432 OA
BRANCH  17  18
ATOM     18  C   UNL     1     -10.708  16.250  68.013  0.00  0.00    +0.284 C 
BRANCH  18  20
ATOM     19  C   UNL     1     -11.457  15.967  70.519  0.00  0.00    -0.069 C 
ATOM     20  C   UNL     1     -11.296  16.309  69.364  0.00  0.00    -0.042 C 
BRANCH  19  21
ATOM     21  C   UNL     1     -11.615  15.311  71.830  0.00  0.00    +0.150 C 
BRANCH  21  22
ATOM     22  N   UNL     1     -13.006  15.470  72.239  0.00  0.00    -0.262 NA
BRANCH  22  23
ATOM     23  C   UNL     1     -13.852  14.430  71.724  0.00  0.00    +0.073 C 
ATOM     24  C   UNL     1     -15.192  15.072  71.382  0.00  0.00    +0.019 C 
ENDBRANCH  22  23
BRANCH  22  26
ATOM     25  C   UNL     1     -12.283  16.117  74.094  0.00  0.00    +0.019 C 
ATOM     26  C   UNL     1     -13.142  15.689  73.655  0.00  0.00    +0.073 C 
ENDBRANCH  22  26
ENDBRANCH  21  22
ENDBRANCH  19  21
ENDBRANCH  18  20
ENDBRANCH  17  18
ENDBRANCH  15  17
ENDBRANCH   1  15
TORSDOF 10
ENDMDL
MODEL 9
REMARK VINA RESULT:      -5.7      3.564      6.996
REMARK  Name = 
REMARK  10 active torsions:
REMARK  status: ('A' for Active; 'I' for Inactive)
REMARK    1  A    between atoms: C_2  and  N_3
REMARK    2  A    between atoms: N_3  and  C_4
REMARK    3  A    between atoms: N_3  and  C_6
REMARK    4  A    between atoms: C_6  and  C_7
REMARK    5  A    between atoms: C_8  and  C_9
REMARK    6  A    between atoms: C_9  and  O_10
REMARK    7  A    between atoms: O_10  and  C_11
REMARK    8  A    between atoms: C_11  and  C_13
REMARK    9  A    between atoms: C_13  and  C_15
REMARK   10  A    between atoms: C_13  and  C_21
REMARK                            x       y       z     vdW  Elec       q    Type
REMARK                         _______ _______ _______ _____ _____    ______ ____
ROOT
ATOM      1  C   UNL     1     -10.185  15.376  67.096  0.00  0.00    +0.233 C 
ATOM      2  O   UNL     1      -9.053  14.804  67.682  0.00  0.00    -0.210 OA
ENDROOT
BRANCH   1   3
ATOM      3  C   UNL     1     -10.655  14.439  66.055  0.00  0.00    +0.015 A 
ATOM      4  C   UNL     1      -9.979  13.228  65.972  0.00  0.00    -0.001 A 
ATOM      5  C   UNL     1     -10.339  12.236  65.085  0.00  0.00    -0.000 A 
ATOM      6  C   UNL     1     -11.442  12.504  64.285  0.00  0.00    -0.000 A 
ATOM      7  C   UNL     1     -12.049  13.753  64.293  0.00  0.00    -0.000 A 
ATOM      8  C   UNL     1     -11.520  14.777  65.044  0.00  0.00    -0.001 A 
ENDBRANCH   1   3
BRANCH   1   9
ATOM      9  C   UNL     1     -11.189  15.594  68.192  0.00  0.00    +0.043 C 
ATOM     10  C   UNL     1     -12.134  14.437  68.364  0.00  0.00    +0.003 C 
ATOM     11  C   UNL     1     -11.840  13.622  69.598  0.00  0.00    +0.000 C 
ATOM     12  C   UNL     1     -11.817  14.462  70.851  0.00  0.00    +0.000 C 
ATOM     13  C   UNL     1     -11.416  15.888  70.596  0.00  0.00    +0.000 C 
ATOM     14  C   UNL     1     -10.398  15.874  69.464  0.00  0.00    +0.003 C 
ENDBRANCH   1   9
BRANCH   1  15
ATOM     15  C   UNL     1      -9.887  16.710  66.501  0.00  0.00    +0.350 C 
ATOM     16  O   UNL     1      -8.831  16.881  65.820  0.00  0.00    -0.247 OA
BRANCH  15  17
ATOM     17  O   UNL     1     -10.524  17.879  66.915  0.00  0.00    -0.432 OA
BRANCH  17  18
ATOM     18  C   UNL     1     -10.401  19.003  66.048  0.00  0.00    +0.284 C 
BRANCH  18  20
ATOM     19  C   UNL     1      -8.430  20.329  67.178  0.00  0.00    -0.069 C 
ATOM     20  C   UNL     1      -9.494  19.934  66.744  0.00  0.00    -0.042 C 
BRANCH  19  21
ATOM     21  C   UNL     1      -7.091  20.556  67.752  0.00  0.00    +0.150 C 
BRANCH  21  22
ATOM     22  N   UNL     1      -6.861  19.527  68.759  0.00  0.00    -0.262 NA
BRANCH  22  23
ATOM     23  C   UNL     1      -6.312  18.324  68.199  0.00  0.00    +0.073 C 
ATOM     24  C   UNL     1      -6.849  17.161  69.025  0.00  0.00    +0.019 C 
ENDBRANCH  22  23
BRANCH  22  26
ATOM     25  C   UNL     1      -5.412  20.750  69.648  0.00  0.00    +0.019 C 
ATOM     26  C   UNL     1      -6.136  20.025  69.900  0.00  0.00    +0.073 C 
ENDBRANCH  22  26
ENDBRANCH  21  22
ENDBRANCH  19  21
ENDBRANCH  18  20
ENDBRANCH  17  18
ENDBRANCH  15  17
ENDBRANCH   1  15
TORSDOF 10
ENDMDL
