MODEL 1
REMARK VINA RESULT:      -7.4      0.000      0.000
REMARK  Name = 
REMARK  3 active torsions:
REMARK  status: ('A' for Active; 'I' for Inactive)
REMARK    1  A    between atoms: C_2  and  C_4
REMARK    2  A    between atoms: C_8  and  C_9
REMARK    3  A    between atoms: C_9  and  C_11
REMARK                            x       y       z     vdW  Elec       q    Type
REMARK                         _______ _______ _______ _____ _____    ______ ____
ROOT
ATOM      1  C   UNL     1     -11.124  12.458  65.424  0.00  0.00    +0.143 C 
ATOM      2  C   UNL     1     -11.812  12.690  66.886  0.00  0.00    +0.048 A 
ATOM      3  N   UNL     1     -11.524  13.910  67.241  0.00  0.00    -0.328 N 
ATOM      4  C   UNL     1     -11.568  14.030  68.563  0.00  0.00    +0.099 A 
ATOM      5  C   UNL     1     -11.613  12.761  69.081  0.00  0.00    +0.022 A 
ATOM      6  C   UNL     1     -11.789  14.706  66.043  0.00  0.00    +0.107 C 
ATOM      7  C   UNL     1     -11.644  11.881  68.005  0.00  0.00    +0.015 A 
ATOM      8  C   UNL     1     -10.708  14.061  65.235  0.00  0.00    +0.042 C 
ENDROOT
BRANCH   1  10
ATOM      9  O   UNL     1     -13.070  12.522  64.951  0.00  0.00    -0.245 OA
ATOM     10  C   UNL     1     -12.556  12.696  64.662  0.00  0.00    +0.370 C 
ATOM     11  O   UNL     1     -12.354  13.327  63.427  0.00  0.00    -0.245 OA
ENDBRANCH   1  10
BRANCH   4  12
ATOM     12  C   UNL     1     -11.810  15.259  69.326  0.00  0.00    +0.211 C 
ATOM     13  O   UNL     1     -11.912  16.335  68.705  0.00  0.00    -0.285 OA
BRANCH  12  14
ATOM     14  C   UNL     1     -12.305  15.113  70.698  0.00  0.00    +0.040 A 
ATOM     15  C   UNL     1     -13.673  15.026  70.913  0.00  0.00    +0.003 A 
ATOM     16  C   UNL     1     -14.188  15.372  72.141  0.00  0.00    +0.000 A 
ATOM     17  C   UNL     1     -13.330  15.423  73.226  0.00  0.00    +0.000 A 
ATOM     18  C   UNL     1     -12.015  15.745  72.950  0.00  0.00    +0.000 A 
ATOM     19  C   UNL     1     -11.472  15.586  71.699  0.00  0.00    +0.003 A 
ENDBRANCH  12  14
ENDBRANCH   4  12
TORSDOF 3
ENDMDL
MODEL 2
REMARK VINA RESULT:      -6.8      2.352      3.562
REMARK  Name = 
REMARK  3 active torsions:
REMARK  status: ('A' for Active; 'I' for Inactive)
REMARK    1  A    between atoms: C_2  and  C_4
REMARK    2  A    between atoms: C_8  and  C_9
REMARK    3  A    between atoms: C_9  and  C_11
REMARK                            x       y       z     vdW  Elec       q    Type
REMARK                         _______ _______ _______ _____ _____    ______ ____
ROOT
ATOM      1  C   UNL     1     -11.218  12.322  65.252  0.00  0.00    +0.143 C 
ATOM      2  C   UNL     1     -11.795  12.963  66.638  0.00  0.00    +0.048 A 
ATOM      3  N   UNL     1     -11.318  14.173  66.714  0.00  0.00    -0.328 N 
ATOM      4  C   UNL     1     -11.281  14.579  67.977  0.00  0.00    +0.099 A 
ATOM      5  C   UNL     1     -11.484  13.472  68.762  0.00  0.00    +0.022 A 
ATOM      6  C   UNL     1     -11.523  14.724  65.374  0.00  0.00    +0.107 C 
ATOM      7  C   UNL     1     -11.691  12.396  67.905  0.00  0.00    +0.015 A 
ATOM      8  C   UNL     1     -10.585  13.765  64.711  0.00  0.00    +0.042 C 
ENDROOT
BRANCH   1  10
ATOM      9  O   UNL     1     -13.155  12.562  64.804  0.00  0.00    -0.245 OA
ATOM     10  C   UNL     1     -12.635  12.604  64.479  0.00  0.00    +0.370 C 
ATOM     11  O   UNL     1     -12.401  12.947  63.140  0.00  0.00    -0.245 OA
ENDBRANCH   1  10
BRANCH   4  12
ATOM     12  C   UNL     1     -11.308  15.965  68.456  0.00  0.00    +0.211 C 
ATOM     13  O   UNL     1     -12.053  16.250  69.414  0.00  0.00    -0.285 OA
BRANCH  12  14
ATOM     14  C   UNL     1     -10.198  16.835  68.059  0.00  0.00    +0.040 A 
ATOM     15  C   UNL     1      -8.923  16.551  68.527  0.00  0.00    +0.003 A 
ATOM     16  C   UNL     1      -7.987  17.558  68.593  0.00  0.00    +0.000 A 
ATOM     17  C   UNL     1      -8.201  18.708  67.853  0.00  0.00    +0.000 A 
ATOM     18  C   UNL     1      -9.520  19.049  67.623  0.00  0.00    +0.000 A 
ATOM     19  C   UNL     1     -10.537  18.131  67.705  0.00  0.00    +0.003 A 
ENDBRANCH  12  14
ENDBRANCH   4  12
TORSDOF 3
ENDMDL
MODEL 3
REMARK VINA RESULT:      -6.7      2.920      4.065
REMARK  Name = 
REMARK  3 active torsions:
REMARK  status: ('A' for Active; 'I' for Inactive)
REMARK    1  A    between atoms: C_2  and  C_4
REMARK    2  A    between atoms: C_8  and  C_9
REMARK    3  A    between atoms: C_9  and  C_11
REMARK                            x       y       z     vdW  Elec       q    Type
REMARK                         _______ _______ _______ _____ _____    ______ ____
ROOT
ATOM      1  C   UNL     1     -11.742  12.245  65.796  0.00  0.00    +0.143 C 
ATOM      2  C   UNL     1     -11.595  13.592  66.707  0.00  0.00    +0.048 A 
ATOM      3  N   UNL     1     -10.486  14.168  66.339  0.00  0.00    -0.328 N 
ATOM      4  C   UNL     1     -10.015  14.934  67.317  0.00  0.00    +0.099 A 
ATOM      5  C   UNL     1     -10.711  14.609  68.453  0.00  0.00    +0.022 A 
ATOM      6  C   UNL     1     -10.529  14.132  64.877  0.00  0.00    +0.107 C 
ATOM      7  C   UNL     1     -11.652  13.649  68.096  0.00  0.00    +0.015 A 
ATOM      8  C   UNL     1     -10.469  12.639  64.797  0.00  0.00    +0.042 C 
ENDROOT
BRANCH   1  10
ATOM      9  O   UNL     1     -13.128  13.462  65.015  0.00  0.00    -0.245 OA
ATOM     10  C   UNL     1     -12.811  12.983  64.797  0.00  0.00    +0.370 C 
ATOM     11  O   UNL     1     -12.789  12.383  63.530  0.00  0.00    -0.245 OA
ENDBRANCH   1  10
BRANCH   4  12
ATOM     12  C   UNL     1      -9.133  16.097  67.174  0.00  0.00    +0.211 C 
ATOM     13  O   UNL     1      -8.034  15.945  66.605  0.00  0.00    -0.285 OA
BRANCH  12  14
ATOM     14  C   UNL     1      -9.735  17.423  67.343  0.00  0.00    +0.040 A 
ATOM     15  C   UNL     1     -10.264  18.066  66.233  0.00  0.00    +0.003 A 
ATOM     16  C   UNL     1     -10.382  19.437  66.239  0.00  0.00    +0.000 A 
ATOM     17  C   UNL     1     -10.340  20.099  67.455  0.00  0.00    +0.000 A 
ATOM     18  C   UNL     1      -9.594  19.498  68.451  0.00  0.00    +0.000 A 
ATOM     19  C   UNL     1      -9.289  18.159  68.428  0.00  0.00    +0.003 A 
ENDBRANCH  12  14
ENDBRANCH   4  12
TORSDOF 3
ENDMDL
MODEL 4
REMARK VINA RESULT:      -6.7      3.388      4.625
REMARK  Name = 
REMARK  3 active torsions:
REMARK  status: ('A' for Active; 'I' for Inactive)
REMARK    1  A    between atoms: C_2  and  C_4
REMARK    2  A    between atoms: C_8  and  C_9
REMARK    3  A    between atoms: C_9  and  C_11
REMARK                            x       y       z     vdW  Elec       q    Type
REMARK                         _______ _______ _______ _____ _____    ______ ____
ROOT
ATOM      1  C   UNL     1      -8.266  19.006  68.001  0.00  0.00    +0.143 C 
ATOM      2  C   UNL     1      -8.615  17.414  68.092  0.00  0.00    +0.048 A 
ATOM      3  N   UNL     1      -9.843  17.327  68.518  0.00  0.00    -0.328 N 
ATOM      4  C   UNL     1     -10.047  16.155  69.108  0.00  0.00    +0.099 A 
ATOM      5  C   UNL     1      -8.815  15.586  69.310  0.00  0.00    +0.022 A 
ATOM      6  C   UNL     1     -10.572  18.312  67.719  0.00  0.00    +0.107 C 
ATOM      7  C   UNL     1      -7.872  16.452  68.769  0.00  0.00    +0.015 A 
ATOM      8  C   UNL     1      -9.837  19.486  68.283  0.00  0.00    +0.042 C 
ENDROOT
BRANCH   1  10
ATOM      9  O   UNL     1      -8.821  19.483  66.137  0.00  0.00    -0.245 OA
ATOM     10  C   UNL     1      -8.510  19.013  66.380  0.00  0.00    +0.370 C 
ATOM     11  O   UNL     1      -7.898  17.898  65.790  0.00  0.00    -0.245 OA
ENDBRANCH   1  10
BRANCH   4  12
ATOM     12  C   UNL     1     -11.330  15.461  69.262  0.00  0.00    +0.211 C 
ATOM     13  O   UNL     1     -11.845  14.932  68.257  0.00  0.00    -0.285 OA
BRANCH  12  14
ATOM     14  C   UNL     1     -11.735  15.089  70.620  0.00  0.00    +0.040 A 
ATOM     15  C   UNL     1     -12.524  13.961  70.800  0.00  0.00    +0.003 A 
ATOM     16  C   UNL     1     -13.304  13.855  71.929  0.00  0.00    +0.000 A 
ATOM     17  C   UNL     1     -13.004  14.658  73.017  0.00  0.00    +0.000 A 
ATOM     18  C   UNL     1     -12.421  15.878  72.732  0.00  0.00    +0.000 A 
ATOM     19  C   UNL     1     -11.767  16.117  71.548  0.00  0.00    +0.003 A 
ENDBRANCH  12  14
ENDBRANCH   4  12
TORSDOF 3
ENDMDL
MODEL 5
REMARK VINA RESULT:      -6.5      3.553      4.881
REMARK  Name = 
REMARK  3 active torsions:
REMARK  status: ('A' for Active; 'I' for Inactive)
REMARK    1  A    between atoms: C_2  and  C_4
REMARK    2  A    between atoms: C_8  and  C_9
REMARK    3  A    between atoms: C_9  and  C_11
REMARK                            x       y       z     vdW  Elec       q    Type
REMARK                         _______ _______ _______ _____ _____    ______ ____
ROOT
ATOM      1  C   UNL     1     -11.413  13.360  66.016  0.00  0.00    +0.143 C 
ATOM      2  C   UNL     1     -11.677  14.664  66.962  0.00  0.00    +0.048 A 
ATOM      3  N   UNL     1     -10.832  15.578  66.578  0.00  0.00    -0.328 N 
ATOM      4  C   UNL     1     -10.599  16.436  67.564  0.00  0.00    +0.099 A 
ATOM      5  C   UNL     1     -11.106  15.880  68.711  0.00  0.00    +0.022 A 
ATOM      6  C   UNL     1     -10.918  15.557  65.118  0.00  0.00    +0.107 C 
ATOM      7  C   UNL     1     -11.695  14.673  68.354  0.00  0.00    +0.015 A 
ATOM      8  C   UNL     1     -10.377  14.168  64.990  0.00  0.00    +0.042 C 
ENDROOT
BRANCH   1  10
ATOM      9  O   UNL     1     -13.182  14.006  65.335  0.00  0.00    -0.245 OA
ATOM     10  C   UNL     1     -12.702  13.727  65.073  0.00  0.00    +0.370 C 
ATOM     11  O   UNL     1     -12.458  13.350  63.745  0.00  0.00    -0.245 OA
ENDBRANCH   1  10
BRANCH   4  12
ATOM     12  C   UNL     1     -10.151  17.827  67.430  0.00  0.00    +0.211 C 
ATOM     13  O   UNL     1     -10.991  18.738  67.565  0.00  0.00    -0.285 OA
BRANCH  12  14
ATOM     14  C   UNL     1      -8.712  18.084  67.538  0.00  0.00    +0.040 A 
ATOM     15  C   UNL     1      -8.274  19.121  68.350  0.00  0.00    +0.003 A 
ATOM     16  C   UNL     1      -7.046  19.693  68.113  0.00  0.00    +0.000 A 
ATOM     17  C   UNL     1      -6.129  18.994  67.346  0.00  0.00    +0.000 A 
ATOM     18  C   UNL     1      -6.653  18.142  66.393  0.00  0.00    +0.000 A 
ATOM     19  C   UNL     1      -7.937  17.659  66.471  0.00  0.00    +0.003 A 
ENDBRANCH  12  14
ENDBRANCH   4  12
TORSDOF 3
ENDMDL
MODEL 6
REMARK VINA RESULT:      -6.5      3.503      4.633
REMARK  Name = 
REMARK  3 active torsions:
REMARK  status: ('A' for Active; 'I' for Inactive)
REMARK    1  A    between atoms: C_2  and  C_4
REMARK    2  A    between atoms: C_8  and  C_9
REMARK    3  A    between atoms: C_9  and  C_11
REMARK                            x       y       z     vdW  Elec       q    Type
REMARK                         _______ _______ _______ _____ _____    ______ ____
ROOT
ATOM      1  C   UNL     1     -10.549  12.161  66.378  0.00  0.00    +0.143 C 
ATOM      2  C   UNL     1     -10.058  13.674  66.747  0.00  0.00    +0.048 A 
ATOM      3  N   UNL     1     -10.688  14.476  65.936  0.00  0.00    -0.328 N 
ATOM      4  C   UNL     1     -10.012  15.609  65.787  0.00  0.00    +0.099 A 
ATOM      5  C   UNL     1      -8.760  15.402  66.309  0.00  0.00    +0.022 A 
ATOM      6  C   UNL     1     -12.071  14.002  65.964  0.00  0.00    +0.107 C 
ATOM      7  C   UNL     1      -8.739  14.110  66.820  0.00  0.00    +0.015 A 
ATOM      8  C   UNL     1     -11.752  12.678  65.347  0.00  0.00    +0.042 C 
ENDROOT
BRANCH   1  10
ATOM      9  O   UNL     1     -12.137  11.879  67.566  0.00  0.00    -0.245 OA
ATOM     10  C   UNL     1     -11.587  12.140  67.646  0.00  0.00    +0.370 C 
ATOM     11  O   UNL     1     -10.991  12.723  68.774  0.00  0.00    -0.245 OA
ENDBRANCH   1  10
BRANCH   4  12
ATOM     12  C   UNL     1     -10.559  16.916  65.407  0.00  0.00    +0.211 C 
ATOM     13  O   UNL     1     -11.287  16.985  64.398  0.00  0.00    -0.285 OA
BRANCH  12  14
ATOM     14  C   UNL     1     -10.553  17.970  66.426  0.00  0.00    +0.040 A 
ATOM     15  C   UNL     1     -10.227  19.265  66.049  0.00  0.00    +0.003 A 
ATOM     16  C   UNL     1      -9.744  20.142  66.993  0.00  0.00    +0.000 A 
ATOM     17  C   UNL     1      -9.953  19.854  68.331  0.00  0.00    +0.000 A 
ATOM     18  C   UNL     1     -10.039  18.515  68.660  0.00  0.00    +0.000 A 
ATOM     19  C   UNL     1     -10.351  17.552  67.732  0.00  0.00    +0.003 A 
ENDBRANCH  12  14
ENDBRANCH   4  12
TORSDOF 3
ENDMDL
MODEL 7
REMARK VINA RESULT:      -6.5      3.843      6.612
REMARK  Name = 
REMARK  3 active torsions:
REMARK  status: ('A' for Active; 'I' for Inactive)
REMARK    1  A    between atoms: C_2  and  C_4
REMARK    2  A    between atoms: C_8  and  C_9
REMARK    3  A    between atoms: C_9  and  C_11
REMARK                            x       y       z     vdW  Elec       q    Type
REMARK                         _______ _______ _______ _____ _____    ______ ____
ROOT
ATOM      1  C   UNL     1      -8.439  18.988  68.145  0.00  0.00    +0.143 C 
ATOM      2  C   UNL     1      -8.490  17.959  66.878  0.00  0.00    +0.048 A 
ATOM      3  N   UNL     1      -9.744  17.656  66.697  0.00  0.00    -0.328 N 
ATOM      4  C   UNL     1      -9.854  16.484  66.082  0.00  0.00    +0.099 A 
ATOM      5  C   UNL     1      -8.619  15.890  66.125  0.00  0.00    +0.022 A 
ATOM      6  C   UNL     1     -10.439  18.941  66.775  0.00  0.00    +0.107 C 
ATOM      7  C   UNL     1      -7.757  16.783  66.752  0.00  0.00    +0.015 A 
ATOM      8  C   UNL     1     -10.094  19.172  68.212  0.00  0.00    +0.042 C 
ENDROOT
BRANCH   1  10
ATOM      9  O   UNL     1      -8.620  20.784  67.276  0.00  0.00    -0.245 OA
ATOM     10  C   UNL     1      -8.294  20.280  67.146  0.00  0.00    +0.370 C 
ATOM     11  O   UNL     1      -7.368  20.009  66.129  0.00  0.00    -0.245 OA
ENDBRANCH   1  10
BRANCH   4  12
ATOM     12  C   UNL     1     -10.981  16.024  65.263  0.00  0.00    +0.211 C 
ATOM     13  O   UNL     1     -11.294  16.688  64.255  0.00  0.00    -0.285 OA
BRANCH  12  14
ATOM     14  C   UNL     1     -11.415  14.635  65.436  0.00  0.00    +0.040 A 
ATOM     15  C   UNL     1     -11.872  14.225  66.680  0.00  0.00    +0.003 A 
ATOM     16  C   UNL     1     -11.821  12.891  67.013  0.00  0.00    +0.000 A 
ATOM     17  C   UNL     1     -11.688  11.961  65.996  0.00  0.00    +0.000 A 
ATOM     18  C   UNL     1     -11.011  12.384  64.867  0.00  0.00    +0.000 A 
ATOM     19  C   UNL     1     -10.872  13.714  64.555  0.00  0.00    +0.003 A 
ENDBRANCH  12  14
ENDBRANCH   4  12
TORSDOF 3
ENDMDL
MODEL 8
REMARK VINA RESULT:      -6.5      2.898      3.804
REMARK  Name = 
REMARK  3 active torsions:
REMARK  status: ('A' for Active; 'I' for Inactive)
REMARK    1  A    between atoms: C_2  and  C_4
REMARK    2  A    between atoms: C_8  and  C_9
REMARK    3  A    between atoms: C_9  and  C_11
REMARK                            x       y       z     vdW  Elec       q    Type
REMARK                         _______ _______ _______ _____ _____    ______ ____
ROOT
ATOM      1  C   UNL     1     -10.957  13.353  65.142  0.00  0.00    +0.143 C 
ATOM      2  C   UNL     1     -11.438  12.178  66.168  0.00  0.00    +0.048 A 
ATOM      3  N   UNL     1     -11.385  12.688  67.366  0.00  0.00    -0.328 N 
ATOM      4  C   UNL     1     -11.244  11.727  68.272  0.00  0.00    +0.099 A 
ATOM      5  C   UNL     1     -10.914  10.581  67.595  0.00  0.00    +0.022 A 
ATOM      6  C   UNL     1     -12.012  14.002  67.227  0.00  0.00    +0.107 C 
ATOM      7  C   UNL     1     -10.913  10.892  66.240  0.00  0.00    +0.015 A 
ATOM      8  C   UNL     1     -10.955  14.538  66.314  0.00  0.00    +0.042 C 
ENDROOT
BRANCH   1  10
ATOM      9  O   UNL     1     -12.656  14.285  64.636  0.00  0.00    -0.245 OA
ATOM     10  C   UNL     1     -12.507  13.697  64.737  0.00  0.00    +0.370 C 
ATOM     11  O   UNL     1     -13.262  12.519  64.652  0.00  0.00    -0.245 OA
ENDBRANCH   1  10
BRANCH   4  12
ATOM     12  C   UNL     1     -11.637  11.787  69.684  0.00  0.00    +0.211 C 
ATOM     13  O   UNL     1     -12.052  12.870  70.141  0.00  0.00    -0.285 OA
BRANCH  12  14
ATOM     14  C   UNL     1     -11.896  10.515  70.365  0.00  0.00    +0.040 A 
ATOM     15  C   UNL     1     -13.122  10.323  70.986  0.00  0.00    +0.003 A 
ATOM     16  C   UNL     1     -13.227   9.405  72.005  0.00  0.00    +0.000 A 
ATOM     17  C   UNL     1     -12.241   8.440  72.130  0.00  0.00    +0.000 A 
ATOM     18  C   UNL     1     -10.980   8.797  71.692  0.00  0.00    +0.000 A 
ATOM     19  C   UNL     1     -10.778   9.820  70.799  0.00  0.00    +0.003 A 
ENDBRANCH  12  14
ENDBRANCH   4  12
TORSDOF 3
ENDMDL
MODEL 9
REMARK VINA RESULT:      -6.4      3.375      5.587
REMARK  Name = 
REMARK  3 active torsions:
REMARK  status: ('A' for Active; 'I' for Inactive)
REMARK    1  A    between atoms: C_2  and  C_4
REMARK    2  A    between atoms: C_8  and  C_9
REMARK    3  A    between atoms: C_9  and  C_11
REMARK                            x       y       z     vdW  Elec       q    Type
REMARK                         _______ _______ _______ _____ _____    ______ ____
ROOT
ATOM      1  C   UNL     1      -8.249  19.014  68.006  0.00  0.00    +0.143 C 
ATOM      2  C   UNL     1      -8.653  17.434  68.057  0.00  0.00    +0.048 A 
ATOM      3  N   UNL     1      -9.890  17.380  68.463  0.00  0.00    -0.328 N 
ATOM      4  C   UNL     1     -10.143  16.203  69.024  0.00  0.00    +0.099 A 
ATOM      5  C   UNL     1      -8.934  15.588  69.232  0.00  0.00    +0.022 A 
ATOM      6  C   UNL     1     -10.572  18.406  67.674  0.00  0.00    +0.107 C 
ATOM      7  C   UNL     1      -7.953  16.432  68.724  0.00  0.00    +0.015 A 
ATOM      8  C   UNL     1      -9.807  19.542  68.275  0.00  0.00    +0.042 C 
ENDROOT
BRANCH   1  10
ATOM      9  O   UNL     1      -8.756  19.552  66.144  0.00  0.00    -0.245 OA
ATOM     10  C   UNL     1      -8.467  19.065  66.383  0.00  0.00    +0.370 C 
ATOM     11  O   UNL     1      -7.892  17.938  65.778  0.00  0.00    -0.245 OA
ENDBRANCH   1  10
BRANCH   4  12
ATOM     12  C   UNL     1     -11.451  15.550  69.143  0.00  0.00    +0.211 C 
ATOM     13  O   UNL     1     -12.348  16.128  69.788  0.00  0.00    -0.285 OA
BRANCH  12  14
ATOM     14  C   UNL     1     -11.754  14.475  68.195  0.00  0.00    +0.040 A 
ATOM     15  C   UNL     1     -11.717  13.160  68.636  0.00  0.00    +0.003 A 
ATOM     16  C   UNL     1     -11.513  12.147  67.728  0.00  0.00    +0.000 A 
ATOM     17  C   UNL     1     -11.733  12.409  66.386  0.00  0.00    +0.000 A 
ATOM     18  C   UNL     1     -11.524  13.712  65.977  0.00  0.00    +0.000 A 
ATOM     19  C   UNL     1     -11.544  14.766  66.857  0.00  0.00    +0.003 A 
ENDBRANCH  12  14
ENDBRANCH   4  12
TORSDOF 3
ENDMDL
