MODEL 1
REMARK VINA RESULT:      -6.1      0.000      0.000
REMARK  Name = 
REMARK  3 active torsions:
REMARK  status: ('A' for Active; 'I' for Inactive)
REMARK    1  A    between atoms: C_2  and  C_3
REMARK    2  A    between atoms: C_2  and  N_18
REMARK    3  A    between atoms: C_3  and  N_4
REMARK                            x       y       z     vdW  Elec       q    Type
REMARK                         _______ _______ _______ _____ _____    ______ ____
ROOT
ATOM      1  N   UNL     1     -11.044  15.471  68.011  0.00  0.00    -0.285 N 
ATOM      2  C   UNL     1     -11.066  14.507  66.977  0.00  0.00    +0.058 A 
ATOM      3  C   UNL     1     -11.750  13.324  67.094  0.00  0.00    +0.043 A 
ATOM      4  C   UNL     1     -11.836  12.500  66.012  0.00  0.00    +0.008 A 
ATOM      5  C   UNL     1     -11.347  12.863  64.782  0.00  0.00    +0.001 A 
ATOM      6  C   UNL     1     -10.639  14.036  64.635  0.00  0.00    +0.001 A 
ATOM      7  S   UNL     1     -11.718  12.566  68.718  0.00  0.00    -0.084 S 
ATOM      8  C   UNL     1     -11.653  13.947  69.864  0.00  0.00    +0.043 A 
ATOM      9  C   UNL     1     -12.458  13.780  70.981  0.00  0.00    +0.008 A 
ATOM     10  C   UNL     1     -12.493  14.828  71.890  0.00  0.00    +0.001 A 
ATOM     11  C   UNL     1     -11.758  15.977  71.624  0.00  0.00    +0.001 A 
ATOM     12  C   UNL     1     -11.579  16.240  70.269  0.00  0.00    +0.015 A 
ATOM     13  C   UNL     1     -10.636  14.898  65.717  0.00  0.00    +0.015 A 
ATOM     14  C   UNL     1     -11.502  15.208  69.339  0.00  0.00    +0.058 A 
ENDROOT
BRANCH   1  15
ATOM     15  C   UNL     1     -10.883  16.861  67.667  0.00  0.00    +0.111 C 
BRANCH  15  17
ATOM     16  C   UNL     1      -9.513  18.653  68.513  0.00  0.00    +0.019 C 
ATOM     17  C   UNL     1      -9.248  17.157  67.817  0.00  0.00    +0.078 C 
BRANCH  17  18
ATOM     18  N   UNL     1      -9.198  17.814  66.357  0.00  0.00    -0.270 NA
ATOM     19  C   UNL     1      -7.972  18.584  66.354  0.00  0.00    +0.090 C 
ATOM     20  C   UNL     1     -10.371  18.679  66.345  0.00  0.00    +0.090 C 
ENDBRANCH  17  18
ENDBRANCH  15  17
ENDBRANCH   1  15
TORSDOF 3
ENDMDL
MODEL 2
REMARK VINA RESULT:      -6.0      1.987      4.913
REMARK  Name = 
REMARK  3 active torsions:
REMARK  status: ('A' for Active; 'I' for Inactive)
REMARK    1  A    between atoms: C_2  and  C_3
REMARK    2  A    between atoms: C_2  and  N_18
REMARK    3  A    between atoms: C_3  and  N_4
REMARK                            x       y       z     vdW  Elec       q    Type
REMARK                         _______ _______ _______ _____ _____    ______ ____
ROOT
ATOM      1  N   UNL     1     -11.311  14.526  69.219  0.00  0.00    -0.285 N 
ATOM      2  C   UNL     1     -11.454  13.185  68.794  0.00  0.00    +0.058 A 
ATOM      3  C   UNL     1     -10.953  12.739  67.599  0.00  0.00    +0.043 A 
ATOM      4  C   UNL     1     -11.013  11.407  67.312  0.00  0.00    +0.008 A 
ATOM      5  C   UNL     1     -11.466  10.488  68.223  0.00  0.00    +0.001 A 
ATOM      6  C   UNL     1     -11.994  10.905  69.427  0.00  0.00    +0.001 A 
ATOM      7  S   UNL     1     -11.066  13.892  66.231  0.00  0.00    -0.084 S 
ATOM      8  C   UNL     1     -10.900  15.511  66.986  0.00  0.00    +0.043 A 
ATOM      9  C   UNL     1     -10.107  16.386  66.258  0.00  0.00    +0.008 A 
ATOM     10  C   UNL     1      -9.897  17.644  66.804  0.00  0.00    +0.001 A 
ATOM     11  C   UNL     1     -10.458  17.946  68.040  0.00  0.00    +0.001 A 
ATOM     12  C   UNL     1     -10.622  16.846  68.875  0.00  0.00    +0.015 A 
ATOM     13  C   UNL     1     -11.846  12.245  69.737  0.00  0.00    +0.015 A 
ATOM     14  C   UNL     1     -10.871  15.578  68.358  0.00  0.00    +0.058 A 
ENDROOT
BRANCH   1  15
ATOM     15  C   UNL     1     -11.269  14.811  70.631  0.00  0.00    +0.111 C 
BRANCH  15  17
ATOM     16  C   UNL     1     -12.013  16.328  72.348  0.00  0.00    +0.019 C 
ATOM     17  C   UNL     1     -12.645  15.705  70.933  0.00  0.00    +0.078 C 
BRANCH  17  18
ATOM     18  N   UNL     1     -13.304  14.483  71.732  0.00  0.00    -0.270 NA
ATOM     19  C   UNL     1     -14.730  14.708  71.615  0.00  0.00    +0.090 C 
ATOM     20  C   UNL     1     -12.841  14.695  73.098  0.00  0.00    +0.090 C 
ENDBRANCH  17  18
ENDBRANCH  15  17
ENDBRANCH   1  15
TORSDOF 3
ENDMDL
MODEL 3
REMARK VINA RESULT:      -5.9      1.638      1.914
REMARK  Name = 
REMARK  3 active torsions:
REMARK  status: ('A' for Active; 'I' for Inactive)
REMARK    1  A    between atoms: C_2  and  C_3
REMARK    2  A    between atoms: C_2  and  N_18
REMARK    3  A    between atoms: C_3  and  N_4
REMARK                            x       y       z     vdW  Elec       q    Type
REMARK                         _______ _______ _______ _____ _____    ______ ____
ROOT
ATOM      1  N   UNL     1     -11.518  14.169  68.868  0.00  0.00    -0.285 N 
ATOM      2  C   UNL     1     -11.170  12.953  68.236  0.00  0.00    +0.058 A 
ATOM      3  C   UNL     1     -11.723  11.754  68.603  0.00  0.00    +0.043 A 
ATOM      4  C   UNL     1     -11.440  10.642  67.866  0.00  0.00    +0.008 A 
ATOM      5  C   UNL     1     -10.701  10.704  66.712  0.00  0.00    +0.001 A 
ATOM      6  C   UNL     1     -10.116  11.892  66.325  0.00  0.00    +0.001 A 
ATOM      7  S   UNL     1     -12.015  11.539  70.358  0.00  0.00    -0.084 S 
ATOM      8  C   UNL     1     -12.398  13.185  70.961  0.00  0.00    +0.043 A 
ATOM      9  C   UNL     1     -13.435  13.213  71.883  0.00  0.00    +0.008 A 
ATOM     10  C   UNL     1     -13.815  14.459  72.360  0.00  0.00    +0.001 A 
ATOM     11  C   UNL     1     -13.171  15.592  71.877  0.00  0.00    +0.001 A 
ATOM     12  C   UNL     1     -12.688  15.465  70.579  0.00  0.00    +0.015 A 
ATOM     13  C   UNL     1     -10.483  13.023  67.032  0.00  0.00    +0.015 A 
ATOM     14  C   UNL     1     -12.263  14.235  70.085  0.00  0.00    +0.058 A 
ENDROOT
BRANCH   1  15
ATOM     15  C   UNL     1     -11.434  15.397  68.116  0.00  0.00    +0.111 C 
BRANCH  15  17
ATOM     16  C   UNL     1     -10.325  17.436  68.760  0.00  0.00    +0.019 C 
ATOM     17  C   UNL     1      -9.854  15.902  68.291  0.00  0.00    +0.078 C 
BRANCH  17  18
ATOM     18  N   UNL     1      -9.795  16.359  66.757  0.00  0.00    -0.270 NA
ATOM     19  C   UNL     1      -8.397  16.231  66.400  0.00  0.00    +0.090 C 
ATOM     20  C   UNL     1     -10.205  17.756  66.813  0.00  0.00    +0.090 C 
ENDBRANCH  17  18
ENDBRANCH  15  17
ENDBRANCH   1  15
TORSDOF 3
ENDMDL
MODEL 4
REMARK VINA RESULT:      -5.7      3.389      7.287
REMARK  Name = 
REMARK  3 active torsions:
REMARK  status: ('A' for Active; 'I' for Inactive)
REMARK    1  A    between atoms: C_2  and  C_3
REMARK    2  A    between atoms: C_2  and  N_18
REMARK    3  A    between atoms: C_3  and  N_4
REMARK                            x       y       z     vdW  Elec       q    Type
REMARK                         _______ _______ _______ _____ _____    ______ ____
ROOT
ATOM      1  N   UNL     1     -11.978  11.903  69.809  0.00  0.00    -0.285 N 
ATOM      2  C   UNL     1     -12.365  13.035  70.563  0.00  0.00    +0.058 A 
ATOM      3  C   UNL     1     -12.451  14.287  70.012  0.00  0.00    +0.043 A 
ATOM      4  C   UNL     1     -12.955  15.308  70.762  0.00  0.00    +0.008 A 
ATOM      5  C   UNL     1     -13.474  15.100  72.015  0.00  0.00    +0.001 A 
ATOM      6  C   UNL     1     -13.387  13.857  72.605  0.00  0.00    +0.001 A 
ATOM      7  S   UNL     1     -11.194  14.687  68.797  0.00  0.00    -0.084 S 
ATOM      8  C   UNL     1     -10.826  13.126  67.992  0.00  0.00    +0.043 A 
ATOM      9  C   UNL     1     -10.663  13.234  66.619  0.00  0.00    +0.008 A 
ATOM     10  C   UNL     1     -10.419  12.058  65.923  0.00  0.00    +0.001 A 
ATOM     11  C   UNL     1     -10.380  10.857  66.621  0.00  0.00    +0.001 A 
ATOM     12  C   UNL     1     -11.172  10.834  67.763  0.00  0.00    +0.015 A 
ATOM     13  C   UNL     1     -12.954  12.817  71.801  0.00  0.00    +0.015 A 
ATOM     14  C   UNL     1     -11.404  11.990  68.503  0.00  0.00    +0.058 A 
ENDROOT
BRANCH   1  15
ATOM     15  C   UNL     1     -12.474  10.605  70.192  0.00  0.00    +0.111 C 
BRANCH  15  17
ATOM     16  C   UNL     1     -11.280   8.513  70.190  0.00  0.00    +0.019 C 
ATOM     17  C   UNL     1     -11.245   9.921  71.089  0.00  0.00    +0.078 C 
BRANCH  17  18
ATOM     18  N   UNL     1     -12.298   9.315  72.133  0.00  0.00    -0.270 NA
ATOM     19  C   UNL     1     -11.739   8.030  72.499  0.00  0.00    +0.090 C 
ATOM     20  C   UNL     1     -13.505   9.162  71.331  0.00  0.00    +0.090 C 
ENDBRANCH  17  18
ENDBRANCH  15  17
ENDBRANCH   1  15
TORSDOF 3
ENDMDL
MODEL 5
REMARK VINA RESULT:      -5.7      1.657      5.380
REMARK  Name = 
REMARK  3 active torsions:
REMARK  status: ('A' for Active; 'I' for Inactive)
REMARK    1  A    between atoms: C_2  and  C_3
REMARK    2  A    between atoms: C_2  and  N_18
REMARK    3  A    between atoms: C_3  and  N_4
REMARK                            x       y       z     vdW  Elec       q    Type
REMARK                         _______ _______ _______ _____ _____    ______ ____
ROOT
ATOM      1  N   UNL     1     -10.994  15.663  68.209  0.00  0.00    -0.285 N 
ATOM      2  C   UNL     1     -10.255  16.853  68.009  0.00  0.00    +0.058 A 
ATOM      3  C   UNL     1      -9.689  17.167  66.801  0.00  0.00    +0.043 A 
ATOM      4  C   UNL     1      -9.103  18.388  66.643  0.00  0.00    +0.008 A 
ATOM      5  C   UNL     1      -9.151  19.349  67.621  0.00  0.00    +0.001 A 
ATOM      6  C   UNL     1      -9.697  19.058  68.853  0.00  0.00    +0.001 A 
ATOM      7  S   UNL     1      -9.004  15.789  65.882  0.00  0.00    -0.084 S 
ATOM      8  C   UNL     1     -10.053  14.395  66.304  0.00  0.00    +0.043 A 
ATOM      9  C   UNL     1     -10.352  13.576  65.224  0.00  0.00    +0.008 A 
ATOM     10  C   UNL     1     -11.195  12.502  65.467  0.00  0.00    +0.001 A 
ATOM     11  C   UNL     1     -11.708  12.322  66.746  0.00  0.00    +0.001 A 
ATOM     12  C   UNL     1     -11.859  13.500  67.471  0.00  0.00    +0.015 A 
ATOM     13  C   UNL     1     -10.362  17.850  68.968  0.00  0.00    +0.015 A 
ATOM     14  C   UNL     1     -11.005  14.581  67.277  0.00  0.00    +0.058 A 
ENDROOT
BRANCH   1  15
ATOM     15  C   UNL     1     -12.040  15.649  69.201  0.00  0.00    +0.111 C 
BRANCH  15  17
ATOM     16  C   UNL     1     -12.220  13.811  70.746  0.00  0.00    +0.019 C 
ATOM     17  C   UNL     1     -11.287  15.191  70.617  0.00  0.00    +0.078 C 
BRANCH  17  18
ATOM     18  N   UNL     1     -12.345  16.021  71.488  0.00  0.00    -0.270 NA
ATOM     19  C   UNL     1     -11.919  15.815  72.856  0.00  0.00    +0.090 C 
ATOM     20  C   UNL     1     -13.604  15.342  71.212  0.00  0.00    +0.090 C 
ENDBRANCH  17  18
ENDBRANCH  15  17
ENDBRANCH   1  15
TORSDOF 3
ENDMDL
MODEL 6
REMARK VINA RESULT:      -5.7      2.879      5.502
REMARK  Name = 
REMARK  3 active torsions:
REMARK  status: ('A' for Active; 'I' for Inactive)
REMARK    1  A    between atoms: C_2  and  C_3
REMARK    2  A    between atoms: C_2  and  N_18
REMARK    3  A    between atoms: C_3  and  N_4
REMARK                            x       y       z     vdW  Elec       q    Type
REMARK                         _______ _______ _______ _____ _____    ______ ____
ROOT
ATOM      1  N   UNL     1     -11.669  12.387  69.525  0.00  0.00    -0.285 N 
ATOM      2  C   UNL     1     -12.449  13.160  70.416  0.00  0.00    +0.058 A 
ATOM      3  C   UNL     1     -12.808  12.704  71.658  0.00  0.00    +0.043 A 
ATOM      4  C   UNL     1     -13.449  13.550  72.513  0.00  0.00    +0.008 A 
ATOM      5  C   UNL     1     -13.655  14.872  72.209  0.00  0.00    +0.001 A 
ATOM      6  C   UNL     1     -13.322  15.357  70.961  0.00  0.00    +0.001 A 
ATOM      7  S   UNL     1     -13.203  10.958  71.760  0.00  0.00    -0.084 S 
ATOM      8  C   UNL     1     -12.144  10.179  70.538  0.00  0.00    +0.043 A 
ATOM      9  C   UNL     1     -11.590   8.981  70.965  0.00  0.00    +0.008 A 
ATOM     10  C   UNL     1     -10.724   8.344  70.089  0.00  0.00    +0.001 A 
ATOM     11  C   UNL     1     -10.440   8.941  68.866  0.00  0.00    +0.001 A 
ATOM     12  C   UNL     1     -10.516  10.330  68.878  0.00  0.00    +0.015 A 
ATOM     13  C   UNL     1     -12.597  14.512  70.140  0.00  0.00    +0.015 A 
ATOM     14  C   UNL     1     -11.402  10.997  69.720  0.00  0.00    +0.058 A 
ENDROOT
BRANCH   1  15
ATOM     15  C   UNL     1     -10.823  13.061  68.572  0.00  0.00    +0.111 C 
BRANCH  15  17
ATOM     16  C   UNL     1      -9.995  13.012  66.310  0.00  0.00    +0.019 C 
ATOM     17  C   UNL     1     -11.431  12.635  67.078  0.00  0.00    +0.078 C 
BRANCH  17  18
ATOM     18  N   UNL     1     -11.980  14.121  66.840  0.00  0.00    -0.270 NA
ATOM     19  C   UNL     1     -12.604  14.066  65.535  0.00  0.00    +0.090 C 
ATOM     20  C   UNL     1     -10.763  14.922  66.817  0.00  0.00    +0.090 C 
ENDBRANCH  17  18
ENDBRANCH  15  17
ENDBRANCH   1  15
TORSDOF 3
ENDMDL
MODEL 7
REMARK VINA RESULT:      -5.6      2.019      4.664
REMARK  Name = 
REMARK  3 active torsions:
REMARK  status: ('A' for Active; 'I' for Inactive)
REMARK    1  A    between atoms: C_2  and  C_3
REMARK    2  A    between atoms: C_2  and  N_18
REMARK    3  A    between atoms: C_3  and  N_4
REMARK                            x       y       z     vdW  Elec       q    Type
REMARK                         _______ _______ _______ _____ _____    ______ ____
ROOT
ATOM      1  N   UNL     1     -10.819  13.663  67.377  0.00  0.00    -0.285 N 
ATOM      2  C   UNL     1     -10.672  15.067  67.296  0.00  0.00    +0.058 A 
ATOM      3  C   UNL     1     -10.807  15.881  68.390  0.00  0.00    +0.043 A 
ATOM      4  C   UNL     1     -10.524  17.209  68.267  0.00  0.00    +0.008 A 
ATOM      5  C   UNL     1     -10.013  17.738  67.108  0.00  0.00    +0.001 A 
ATOM      6  C   UNL     1      -9.883  16.950  65.984  0.00  0.00    +0.001 A 
ATOM      7  S   UNL     1     -12.080  15.406  69.560  0.00  0.00    -0.084 S 
ATOM      8  C   UNL     1     -12.126  13.613  69.478  0.00  0.00    +0.043 A 
ATOM      9  C   UNL     1     -12.266  13.003  70.716  0.00  0.00    +0.008 A 
ATOM     10  C   UNL     1     -12.265  11.616  70.735  0.00  0.00    +0.001 A 
ATOM     11  C   UNL     1     -12.099  10.925  69.540  0.00  0.00    +0.001 A 
ATOM     12  C   UNL     1     -11.350  11.606  68.586  0.00  0.00    +0.015 A 
ATOM     13  C   UNL     1     -10.090  15.592  66.150  0.00  0.00    +0.015 A 
ATOM     14  C   UNL     1     -11.360  12.996  68.519  0.00  0.00    +0.058 A 
ENDROOT
BRANCH   1  15
ATOM     15  C   UNL     1     -10.100  12.830  66.446  0.00  0.00    +0.111 C 
BRANCH  15  17
ATOM     16  C   UNL     1     -10.270  10.781  65.192  0.00  0.00    +0.019 C 
ATOM     17  C   UNL     1     -11.281  12.061  65.553  0.00  0.00    +0.078 C 
BRANCH  17  18
ATOM     18  N   UNL     1     -10.827  12.831  64.224  0.00  0.00    -0.270 NA
ATOM     19  C   UNL     1     -12.071  13.223  63.596  0.00  0.00    +0.090 C 
ATOM     20  C   UNL     1     -10.146  11.795  63.459  0.00  0.00    +0.090 C 
ENDBRANCH  17  18
ENDBRANCH  15  17
ENDBRANCH   1  15
TORSDOF 3
ENDMDL
MODEL 8
REMARK VINA RESULT:      -5.5      3.424      6.182
REMARK  Name = 
REMARK  3 active torsions:
REMARK  status: ('A' for Active; 'I' for Inactive)
REMARK    1  A    between atoms: C_2  and  C_3
REMARK    2  A    between atoms: C_2  and  N_18
REMARK    3  A    between atoms: C_3  and  N_4
REMARK                            x       y       z     vdW  Elec       q    Type
REMARK                         _______ _______ _______ _____ _____    ______ ____
ROOT
ATOM      1  N   UNL     1     -11.465  11.478  68.866  0.00  0.00    -0.285 N 
ATOM      2  C   UNL     1     -11.026  10.809  67.700  0.00  0.00    +0.058 A 
ATOM      3  C   UNL     1     -10.522  11.481  66.617  0.00  0.00    +0.043 A 
ATOM      4  C   UNL     1      -9.997  10.768  65.580  0.00  0.00    +0.008 A 
ATOM      5  C   UNL     1      -9.865   9.403  65.632  0.00  0.00    +0.001 A 
ATOM      6  C   UNL     1     -10.378   8.695  66.699  0.00  0.00    +0.001 A 
ATOM      7  S   UNL     1     -11.313  13.044  66.236  0.00  0.00    -0.084 S 
ATOM      8  C   UNL     1     -11.821  13.697  67.829  0.00  0.00    +0.043 A 
ATOM      9  C   UNL     1     -11.612  15.062  67.963  0.00  0.00    +0.008 A 
ATOM     10  C   UNL     1     -11.940  15.628  69.186  0.00  0.00    +0.001 A 
ATOM     11  C   UNL     1     -12.425  14.811  70.201  0.00  0.00    +0.001 A 
ATOM     12  C   UNL     1     -11.965  13.500  70.146  0.00  0.00    +0.015 A 
ATOM     13  C   UNL     1     -10.827   9.437  67.776  0.00  0.00    +0.015 A 
ATOM     14  C   UNL     1     -11.663  12.891  68.931  0.00  0.00    +0.058 A 
ENDROOT
BRANCH   1  15
ATOM     15  C   UNL     1     -11.391  10.795  70.133  0.00  0.00    +0.111 C 
BRANCH  15  17
ATOM     16  C   UNL     1     -13.040  10.723  71.887  0.00  0.00    +0.019 C 
ATOM     17  C   UNL     1     -12.896  10.106  70.341  0.00  0.00    +0.078 C 
BRANCH  17  18
ATOM     18  N   UNL     1     -12.238   8.760  70.909  0.00  0.00    -0.270 NA
ATOM     19  C   UNL     1     -13.207   8.266  71.865  0.00  0.00    +0.090 C 
ATOM     20  C   UNL     1     -11.031   9.237  71.572  0.00  0.00    +0.090 C 
ENDBRANCH  17  18
ENDBRANCH  15  17
ENDBRANCH   1  15
TORSDOF 3
ENDMDL
MODEL 9
REMARK VINA RESULT:      -5.5      2.479      6.122
REMARK  Name = 
REMARK  3 active torsions:
REMARK  status: ('A' for Active; 'I' for Inactive)
REMARK    1  A    between atoms: C_2  and  C_3
REMARK    2  A    between atoms: C_2  and  N_18
REMARK    3  A    between atoms: C_3  and  N_4
REMARK                            x       y       z     vdW  Elec       q    Type
REMARK                         _______ _______ _______ _____ _____    ______ ____
ROOT
ATOM      1  N   UNL     1     -11.399  13.293  68.773  0.00  0.00    -0.285 N 
ATOM      2  C   UNL     1     -12.033  13.392  70.034  0.00  0.00    +0.058 A 
ATOM      3  C   UNL     1     -12.459  14.589  70.547  0.00  0.00    +0.043 A 
ATOM      4  C   UNL     1     -13.176  14.595  71.706  0.00  0.00    +0.008 A 
ATOM      5  C   UNL     1     -13.572  13.434  72.320  0.00  0.00    +0.001 A 
ATOM      6  C   UNL     1     -13.146  12.214  71.840  0.00  0.00    +0.001 A 
ATOM      7  S   UNL     1     -11.398  15.996  70.216  0.00  0.00    -0.084 S 
ATOM      8  C   UNL     1     -10.675  15.654  68.610  0.00  0.00    +0.043 A 
ATOM      9  C   UNL     1     -10.601  16.766  67.784  0.00  0.00    +0.008 A 
ATOM     10  C   UNL     1     -10.093  16.567  66.509  0.00  0.00    +0.001 A 
ATOM     11  C   UNL     1      -9.719  15.285  66.123  0.00  0.00    +0.001 A 
ATOM     12  C   UNL     1     -10.432  14.269  66.752  0.00  0.00    +0.015 A 
ATOM     13  C   UNL     1     -12.494  12.221  70.620  0.00  0.00    +0.015 A 
ATOM     14  C   UNL     1     -10.922  14.426  68.045  0.00  0.00    +0.058 A 
ENDROOT
BRANCH   1  15
ATOM     15  C   UNL     1     -11.530  12.071  68.020  0.00  0.00    +0.111 C 
BRANCH  15  17
ATOM     16  C   UNL     1     -10.093  10.754  66.605  0.00  0.00    +0.019 C 
ATOM     17  C   UNL     1     -10.057  11.304  68.182  0.00  0.00    +0.078 C 
BRANCH  17  18
ATOM     18  N   UNL     1     -10.773   9.966  68.695  0.00  0.00    -0.270 NA
ATOM     19  C   UNL     1     -10.073   9.634  69.918  0.00  0.00    +0.090 C 
ATOM     20  C   UNL     1     -10.480   9.009  67.636  0.00  0.00    +0.090 C 
ENDBRANCH  17  18
ENDBRANCH  15  17
ENDBRANCH   1  15
TORSDOF 3
ENDMDL
