MODEL 1
REMARK VINA RESULT:      -4.5      0.000      0.000
REMARK  Name = 
REMARK  13 active torsions:
REMARK  status: ('A' for Active; 'I' for Inactive)
REMARK    1  A    between atoms: C_2  and  C_3
REMARK    2  A    between atoms: C_3  and  C_4
REMARK    3  A    between atoms: C_4  and  C_5
REMARK    4  A    between atoms: C_5  and  C_6
REMARK    5  A    between atoms: C_6  and  C_7
REMARK    6  A    between atoms: C_7  and  C_8
REMARK    7  A    between atoms: C_8  and  C_9
REMARK    8  A    between atoms: C_9  and  C_10
REMARK    9  A    between atoms: C_10  and  C_11
REMARK   10  A    between atoms: C_11  and  C_12
REMARK   11  A    between atoms: C_12  and  O_13
REMARK   12  A    between atoms: O_13  and  C_14
REMARK   13  A    between atoms: C_14  and  C_15
REMARK                            x       y       z     vdW  Elec       q    Type
REMARK                         _______ _______ _______ _____ _____    ______ ____
ROOT
ATOM      1  C   UNL     1     -12.116  10.348  70.361  0.00  0.00    +0.000 C 
ENDROOT
BRANCH   1   2
ATOM      2  C   UNL     1     -12.895  11.123  71.402  0.00  0.00    +0.000 C 
BRANCH   2   3
ATOM      3  C   UNL     1     -12.836  12.612  71.159  0.00  0.00    +0.000 C 
BRANCH   3   4
ATOM      4  C   UNL     1     -13.627  13.304  72.263  0.00  0.00    +0.000 C 
BRANCH   4   5
ATOM      5  C   UNL     1     -14.196  14.566  71.635  0.00  0.00    +0.000 C 
BRANCH   5   6
ATOM      6  C   UNL     1     -13.979  15.691  72.641  0.00  0.00    +0.000 C 
BRANCH   6   8
ATOM      7  C   UNL     1     -12.426  15.772  74.613  0.00  0.00    +0.000 C 
ATOM      8  C   UNL     1     -12.527  15.680  73.103  0.00  0.00    +0.000 C 
ENDBRANCH   6   8
ENDBRANCH   5   6
ENDBRANCH   4   5
ENDBRANCH   3   4
ENDBRANCH   2   3
ENDBRANCH   1   2
BRANCH   1   9
ATOM      9  C   UNL     1     -11.495  11.379  69.425  0.00  0.00    +0.000 C 
BRANCH   9  10
ATOM     10  C   UNL     1     -11.324  10.675  68.084  0.00  0.00    +0.003 C 
BRANCH  10  11
ATOM     11  C   UNL     1     -11.459  11.703  66.981  0.00  0.00    +0.032 C 
BRANCH  11  12
ATOM     12  C   UNL     1     -11.709  13.089  67.513  0.00  0.00    +0.142 C 
BRANCH  12  13
ATOM     13  O   UNL     1     -11.599  14.068  66.537  0.00  0.00    -0.351 OA
BRANCH  13  14
ATOM     14  C   UNL     1     -12.678  14.018  65.673  0.00  0.00    +0.178 C 
BRANCH  14  15
ATOM     15  C   UNL     1     -12.121  14.193  64.265  0.00  0.00    +0.214 C 
ATOM     16  O   UNL     1     -12.521  13.140  63.443  0.00  0.00    -0.218 OA
ENDBRANCH  14  15
ENDBRANCH  13  14
ENDBRANCH  12  13
ENDBRANCH  11  12
ENDBRANCH  10  11
ENDBRANCH   9  10
ENDBRANCH   1   9
TORSDOF 13
ENDMDL
MODEL 2
REMARK VINA RESULT:      -4.3      3.054      6.956
REMARK  Name = 
REMARK  13 active torsions:
REMARK  status: ('A' for Active; 'I' for Inactive)
REMARK    1  A    between atoms: C_2  and  C_3
REMARK    2  A    between atoms: C_3  and  C_4
REMARK    3  A    between atoms: C_4  and  C_5
REMARK    4  A    between atoms: C_5  and  C_6
REMARK    5  A    between atoms: C_6  and  C_7
REMARK    6  A    between atoms: C_7  and  C_8
REMARK    7  A    between atoms: C_8  and  C_9
REMARK    8  A    between atoms: C_9  and  C_10
REMARK    9  A    between atoms: C_10  and  C_11
REMARK   10  A    between atoms: C_11  and  C_12
REMARK   11  A    between atoms: C_12  and  O_13
REMARK   12  A    between atoms: O_13  and  C_14
REMARK   13  A    between atoms: C_14  and  C_15
REMARK                            x       y       z     vdW  Elec       q    Type
REMARK                         _______ _______ _______ _____ _____    ______ ____
ROOT
ATOM      1  C   UNL     1      -9.069  14.987  66.858  0.00  0.00    +0.000 C 
ENDROOT
BRANCH   1   2
ATOM      2  C   UNL     1      -9.964  15.528  65.764  0.00  0.00    +0.000 C 
BRANCH   2   3
ATOM      3  C   UNL     1     -10.447  14.437  64.840  0.00  0.00    +0.000 C 
BRANCH   3   4
ATOM      4  C   UNL     1     -11.971  14.435  64.866  0.00  0.00    +0.000 C 
BRANCH   4   5
ATOM      5  C   UNL     1     -12.364  13.455  65.961  0.00  0.00    +0.000 C 
BRANCH   5   6
ATOM      6  C   UNL     1     -11.552  12.187  65.724  0.00  0.00    +0.000 C 
BRANCH   6   8
ATOM      7  C   UNL     1     -11.531  12.422  68.224  0.00  0.00    +0.000 C 
ATOM      8  C   UNL     1     -11.322  11.480  67.055  0.00  0.00    +0.000 C 
ENDBRANCH   6   8
ENDBRANCH   5   6
ENDBRANCH   4   5
ENDBRANCH   3   4
ENDBRANCH   2   3
ENDBRANCH   1   2
BRANCH   1   9
ATOM      9  C   UNL     1      -9.372  15.800  68.112  0.00  0.00    +0.000 C 
BRANCH   9  10
ATOM     10  C   UNL     1     -10.705  16.491  67.849  0.00  0.00    +0.003 C 
BRANCH  10  11
ATOM     11  C   UNL     1     -11.736  15.919  68.799  0.00  0.00    +0.032 C 
BRANCH  11  12
ATOM     12  C   UNL     1     -11.345  16.087  70.243  0.00  0.00    +0.142 C 
BRANCH  12  13
ATOM     13  O   UNL     1     -12.419  15.957  71.111  0.00  0.00    -0.351 OA
BRANCH  13  14
ATOM     14  C   UNL     1     -11.980  15.851  72.418  0.00  0.00    +0.178 C 
BRANCH  14  15
ATOM     15  C   UNL     1     -13.216  15.940  73.305  0.00  0.00    +0.214 C 
ATOM     16  O   UNL     1     -14.376  15.945  72.532  0.00  0.00    -0.218 OA
ENDBRANCH  14  15
ENDBRANCH  13  14
ENDBRANCH  12  13
ENDBRANCH  11  12
ENDBRANCH  10  11
ENDBRANCH   9  10
ENDBRANCH   1   9
TORSDOF 13
ENDMDL
MODEL 3
REMARK VINA RESULT:      -4.3      3.280      5.304
REMARK  Name = 
REMARK  13 active torsions:
REMARK  status: ('A' for Active; 'I' for Inactive)
REMARK    1  A    between atoms: C_2  and  C_3
REMARK    2  A    between atoms: C_3  and  C_4
REMARK    3  A    between atoms: C_4  and  C_5
REMARK    4  A    between atoms: C_5  and  C_6
REMARK    5  A    between atoms: C_6  and  C_7
REMARK    6  A    between atoms: C_7  and  C_8
REMARK    7  A    between atoms: C_8  and  C_9
REMARK    8  A    between atoms: C_9  and  C_10
REMARK    9  A    between atoms: C_10  and  C_11
REMARK   10  A    between atoms: C_11  and  C_12
REMARK   11  A    between atoms: C_12  and  O_13
REMARK   12  A    between atoms: O_13  and  C_14
REMARK   13  A    between atoms: C_14  and  C_15
REMARK                            x       y       z     vdW  Elec       q    Type
REMARK                         _______ _______ _______ _____ _____    ______ ____
ROOT
ATOM      1  C   UNL     1     -11.778  13.751  67.314  0.00  0.00    +0.000 C 
ENDROOT
BRANCH   1   2
ATOM      2  C   UNL     1     -12.065  14.464  68.618  0.00  0.00    +0.000 C 
BRANCH   2   3
ATOM      3  C   UNL     1     -11.402  15.818  68.678  0.00  0.00    +0.000 C 
BRANCH   3   4
ATOM      4  C   UNL     1     -11.277  16.220  70.143  0.00  0.00    +0.000 C 
BRANCH   4   5
ATOM      5  C   UNL     1     -12.422  15.524  70.862  0.00  0.00    +0.000 C 
BRANCH   5   6
ATOM      6  C   UNL     1     -11.947  15.259  72.286  0.00  0.00    +0.000 C 
BRANCH   6   8
ATOM      7  C   UNL     1     -13.803  13.568  72.314  0.00  0.00    +0.000 C 
ATOM      8  C   UNL     1     -13.088  14.654  73.094  0.00  0.00    +0.000 C 
ENDBRANCH   6   8
ENDBRANCH   5   6
ENDBRANCH   4   5
ENDBRANCH   3   4
ENDBRANCH   2   3
ENDBRANCH   1   2
BRANCH   1   9
ATOM      9  C   UNL     1     -11.693  12.264  67.639  0.00  0.00    +0.000 C 
BRANCH   9  10
ATOM     10  C   UNL     1     -11.711  12.168  69.160  0.00  0.00    +0.003 C 
BRANCH  10  11
ATOM     11  C   UNL     1     -11.797  10.707  69.548  0.00  0.00    +0.032 C 
BRANCH  11  12
ATOM     12  C   UNL     1     -12.554  10.496  70.832  0.00  0.00    +0.142 C 
BRANCH  12  13
ATOM     13  O   UNL     1     -11.854   9.725  71.749  0.00  0.00    -0.351 OA
BRANCH  13  14
ATOM     14  C   UNL     1     -12.584   8.605  72.103  0.00  0.00    +0.178 C 
BRANCH  14  15
ATOM     15  C   UNL     1     -14.022   8.865  71.671  0.00  0.00    +0.214 C 
ATOM     16  O   UNL     1     -14.917   8.386  72.626  0.00  0.00    -0.218 OA
ENDBRANCH  14  15
ENDBRANCH  13  14
ENDBRANCH  12  13
ENDBRANCH  11  12
ENDBRANCH  10  11
ENDBRANCH   9  10
ENDBRANCH   1   9
TORSDOF 13
ENDMDL
MODEL 4
REMARK VINA RESULT:      -4.2      3.151      7.570
REMARK  Name = 
REMARK  13 active torsions:
REMARK  status: ('A' for Active; 'I' for Inactive)
REMARK    1  A    between atoms: C_2  and  C_3
REMARK    2  A    between atoms: C_3  and  C_4
REMARK    3  A    between atoms: C_4  and  C_5
REMARK    4  A    between atoms: C_5  and  C_6
REMARK    5  A    between atoms: C_6  and  C_7
REMARK    6  A    between atoms: C_7  and  C_8
REMARK    7  A    between atoms: C_8  and  C_9
REMARK    8  A    between atoms: C_9  and  C_10
REMARK    9  A    between atoms: C_10  and  C_11
REMARK   10  A    between atoms: C_11  and  C_12
REMARK   11  A    between atoms: C_12  and  O_13
REMARK   12  A    between atoms: O_13  and  C_14
REMARK   13  A    between atoms: C_14  and  C_15
REMARK                            x       y       z     vdW  Elec       q    Type
REMARK                         _______ _______ _______ _____ _____    ______ ____
ROOT
ATOM      1  C   UNL     1     -12.179  13.801  65.503  0.00  0.00    +0.000 C 
ENDROOT
BRANCH   1   2
ATOM      2  C   UNL     1     -12.715  12.603  64.748  0.00  0.00    +0.000 C 
BRANCH   2   3
ATOM      3  C   UNL     1     -11.999  12.399  63.435  0.00  0.00    +0.000 C 
BRANCH   3   4
ATOM      4  C   UNL     1     -10.499  12.438  63.703  0.00  0.00    +0.000 C 
BRANCH   4   5
ATOM      5  C   UNL     1      -9.983  11.045  63.374  0.00  0.00    +0.000 C 
BRANCH   5   6
ATOM      6  C   UNL     1      -9.147  10.596  64.567  0.00  0.00    +0.000 C 
BRANCH   6   8
ATOM      7  C   UNL     1     -10.219  10.248  66.811  0.00  0.00    +0.000 C 
ATOM      8  C   UNL     1      -9.975   9.657  65.437  0.00  0.00    +0.000 C 
ENDBRANCH   6   8
ENDBRANCH   5   6
ENDBRANCH   4   5
ENDBRANCH   3   4
ENDBRANCH   2   3
ENDBRANCH   1   2
BRANCH   1   9
ATOM      9  C   UNL     1     -12.015  13.363  66.954  0.00  0.00    +0.000 C 
BRANCH   9  10
ATOM     10  C   UNL     1     -11.293  14.507  67.656  0.00  0.00    +0.003 C 
BRANCH  10  11
ATOM     11  C   UNL     1     -11.690  14.501  69.117  0.00  0.00    +0.032 C 
BRANCH  11  12
ATOM     12  C   UNL     1     -11.731  15.885  69.708  0.00  0.00    +0.142 C 
BRANCH  12  13
ATOM     13  O   UNL     1     -12.754  16.046  70.631  0.00  0.00    -0.351 OA
BRANCH  13  14
ATOM     14  C   UNL     1     -12.262  15.980  71.922  0.00  0.00    +0.178 C 
BRANCH  14  15
ATOM     15  C   UNL     1     -13.456  15.724  72.834  0.00  0.00    +0.214 C 
ATOM     16  O   UNL     1     -14.649  15.820  72.121  0.00  0.00    -0.218 OA
ENDBRANCH  14  15
ENDBRANCH  13  14
ENDBRANCH  12  13
ENDBRANCH  11  12
ENDBRANCH  10  11
ENDBRANCH   9  10
ENDBRANCH   1   9
TORSDOF 13
ENDMDL
MODEL 5
REMARK VINA RESULT:      -4.2      1.739      3.716
REMARK  Name = 
REMARK  13 active torsions:
REMARK  status: ('A' for Active; 'I' for Inactive)
REMARK    1  A    between atoms: C_2  and  C_3
REMARK    2  A    between atoms: C_3  and  C_4
REMARK    3  A    between atoms: C_4  and  C_5
REMARK    4  A    between atoms: C_5  and  C_6
REMARK    5  A    between atoms: C_6  and  C_7
REMARK    6  A    between atoms: C_7  and  C_8
REMARK    7  A    between atoms: C_8  and  C_9
REMARK    8  A    between atoms: C_9  and  C_10
REMARK    9  A    between atoms: C_10  and  C_11
REMARK   10  A    between atoms: C_11  and  C_12
REMARK   11  A    between atoms: C_12  and  O_13
REMARK   12  A    between atoms: O_13  and  C_14
REMARK   13  A    between atoms: C_14  and  C_15
REMARK                            x       y       z     vdW  Elec       q    Type
REMARK                         _______ _______ _______ _____ _____    ______ ____
ROOT
ATOM      1  C   UNL     1     -11.229  15.453  70.916  0.00  0.00    +0.000 C 
ENDROOT
BRANCH   1   2
ATOM      2  C   UNL     1     -11.959  16.278  71.954  0.00  0.00    +0.000 C 
BRANCH   2   3
ATOM      3  C   UNL     1     -13.277  15.655  72.345  0.00  0.00    +0.000 C 
BRANCH   3   4
ATOM      4  C   UNL     1     -12.990  14.295  72.970  0.00  0.00    +0.000 C 
BRANCH   4   5
ATOM      5  C   UNL     1     -13.851  13.299  72.207  0.00  0.00    +0.000 C 
BRANCH   5   6
ATOM      6  C   UNL     1     -12.895  12.391  71.442  0.00  0.00    +0.000 C 
BRANCH   6   8
ATOM      7  C   UNL     1     -12.455   9.981  70.891  0.00  0.00    +0.000 C 
ATOM      8  C   UNL     1     -13.159  10.941  71.829  0.00  0.00    +0.000 C 
ENDBRANCH   6   8
ENDBRANCH   5   6
ENDBRANCH   4   5
ENDBRANCH   3   4
ENDBRANCH   2   3
ENDBRANCH   1   2
BRANCH   1   9
ATOM      9  C   UNL     1     -11.984  15.635  69.604  0.00  0.00    +0.000 C 
BRANCH   9  10
ATOM     10  C   UNL     1     -11.477  14.538  68.675  0.00  0.00    +0.003 C 
BRANCH  10  11
ATOM     11  C   UNL     1     -10.397  15.123  67.788  0.00  0.00    +0.032 C 
BRANCH  11  12
ATOM     12  C   UNL     1      -9.963  14.170  66.706  0.00  0.00    +0.142 C 
BRANCH  12  13
ATOM     13  O   UNL     1      -9.850  14.781  65.465  0.00  0.00    -0.351 OA
BRANCH  13  14
ATOM     14  C   UNL     1     -11.082  15.240  65.034  0.00  0.00    +0.178 C 
BRANCH  14  15
ATOM     15  C   UNL     1     -11.898  14.011  64.651  0.00  0.00    +0.214 C 
ATOM     16  O   UNL     1     -13.172  14.072  65.215  0.00  0.00    -0.218 OA
ENDBRANCH  14  15
ENDBRANCH  13  14
ENDBRANCH  12  13
ENDBRANCH  11  12
ENDBRANCH  10  11
ENDBRANCH   9  10
ENDBRANCH   1   9
TORSDOF 13
ENDMDL
MODEL 6
REMARK VINA RESULT:      -4.2      4.318      6.708
REMARK  Name = 
REMARK  13 active torsions:
REMARK  status: ('A' for Active; 'I' for Inactive)
REMARK    1  A    between atoms: C_2  and  C_3
REMARK    2  A    between atoms: C_3  and  C_4
REMARK    3  A    between atoms: C_4  and  C_5
REMARK    4  A    between atoms: C_5  and  C_6
REMARK    5  A    between atoms: C_6  and  C_7
REMARK    6  A    between atoms: C_7  and  C_8
REMARK    7  A    between atoms: C_8  and  C_9
REMARK    8  A    between atoms: C_9  and  C_10
REMARK    9  A    between atoms: C_10  and  C_11
REMARK   10  A    between atoms: C_11  and  C_12
REMARK   11  A    between atoms: C_12  and  O_13
REMARK   12  A    between atoms: O_13  and  C_14
REMARK   13  A    between atoms: C_14  and  C_15
REMARK                            x       y       z     vdW  Elec       q    Type
REMARK                         _______ _______ _______ _____ _____    ______ ____
ROOT
ATOM      1  C   UNL     1     -10.484  14.381  66.662  0.00  0.00    +0.000 C 
ENDROOT
BRANCH   1   2
ATOM      2  C   UNL     1     -10.167  15.752  66.104  0.00  0.00    +0.000 C 
BRANCH   2   3
ATOM      3  C   UNL     1      -8.801  16.231  66.529  0.00  0.00    +0.000 C 
BRANCH   3   4
ATOM      4  C   UNL     1      -8.934  16.890  67.896  0.00  0.00    +0.000 C 
BRANCH   4   5
ATOM      5  C   UNL     1     -10.150  17.799  67.801  0.00  0.00    +0.000 C 
BRANCH   5   6
ATOM      6  C   UNL     1      -9.756  19.124  68.444  0.00  0.00    +0.000 C 
BRANCH   6   8
ATOM      7  C   UNL     1     -10.448  19.726  66.106  0.00  0.00    +0.000 C 
ATOM      8  C   UNL     1      -9.878  20.240  67.413  0.00  0.00    +0.000 C 
ENDBRANCH   6   8
ENDBRANCH   5   6
ENDBRANCH   4   5
ENDBRANCH   3   4
ENDBRANCH   2   3
ENDBRANCH   1   2
BRANCH   1   9
ATOM      9  C   UNL     1     -11.859  14.482  67.312  0.00  0.00    +0.000 C 
BRANCH   9  10
ATOM     10  C   UNL     1     -11.726  13.814  68.675  0.00  0.00    +0.003 C 
BRANCH  10  11
ATOM     11  C   UNL     1     -11.403  14.879  69.702  0.00  0.00    +0.032 C 
BRANCH  11  12
ATOM     12  C   UNL     1     -12.637  15.445  70.352  0.00  0.00    +0.142 C 
BRANCH  12  13
ATOM     13  O   UNL     1     -12.384  15.995  71.600  0.00  0.00    -0.351 OA
BRANCH  13  14
ATOM     14  C   UNL     1     -13.407  15.696  72.482  0.00  0.00    +0.178 C 
BRANCH  14  15
ATOM     15  C   UNL     1     -14.235  14.593  71.833  0.00  0.00    +0.214 C 
ATOM     16  O   UNL     1     -14.192  13.430  72.601  0.00  0.00    -0.218 OA
ENDBRANCH  14  15
ENDBRANCH  13  14
ENDBRANCH  12  13
ENDBRANCH  11  12
ENDBRANCH  10  11
ENDBRANCH   9  10
ENDBRANCH   1   9
TORSDOF 13
ENDMDL
MODEL 7
REMARK VINA RESULT:      -4.2      3.393      5.301
REMARK  Name = 
REMARK  13 active torsions:
REMARK  status: ('A' for Active; 'I' for Inactive)
REMARK    1  A    between atoms: C_2  and  C_3
REMARK    2  A    between atoms: C_3  and  C_4
REMARK    3  A    between atoms: C_4  and  C_5
REMARK    4  A    between atoms: C_5  and  C_6
REMARK    5  A    between atoms: C_6  and  C_7
REMARK    6  A    between atoms: C_7  and  C_8
REMARK    7  A    between atoms: C_8  and  C_9
REMARK    8  A    between atoms: C_9  and  C_10
REMARK    9  A    between atoms: C_10  and  C_11
REMARK   10  A    between atoms: C_11  and  C_12
REMARK   11  A    between atoms: C_12  and  O_13
REMARK   12  A    between atoms: O_13  and  C_14
REMARK   13  A    between atoms: C_14  and  C_15
REMARK                            x       y       z     vdW  Elec       q    Type
REMARK                         _______ _______ _______ _____ _____    ______ ____
ROOT
ATOM      1  C   UNL     1     -11.951  13.189  69.713  0.00  0.00    +0.000 C 
ENDROOT
BRANCH   1   2
ATOM      2  C   UNL     1     -11.602  14.457  68.962  0.00  0.00    +0.000 C 
BRANCH   2   3
ATOM      3  C   UNL     1     -11.579  15.662  69.870  0.00  0.00    +0.000 C 
BRANCH   3   4
ATOM      4  C   UNL     1     -11.277  15.182  71.285  0.00  0.00    +0.000 C 
BRANCH   4   5
ATOM      5  C   UNL     1     -12.201  15.974  72.197  0.00  0.00    +0.000 C 
BRANCH   5   6
ATOM      6  C   UNL     1     -12.821  14.974  73.167  0.00  0.00    +0.000 C 
BRANCH   6   8
ATOM      7  C   UNL     1     -14.842  15.041  71.677  0.00  0.00    +0.000 C 
ATOM      8  C   UNL     1     -13.876  14.152  72.437  0.00  0.00    +0.000 C 
ENDBRANCH   6   8
ENDBRANCH   5   6
ENDBRANCH   4   5
ENDBRANCH   3   4
ENDBRANCH   2   3
ENDBRANCH   1   2
BRANCH   1   9
ATOM      9  C   UNL     1     -11.607  12.026  68.789  0.00  0.00    +0.000 C 
BRANCH   9  10
ATOM     10  C   UNL     1     -11.740  10.767  69.636  0.00  0.00    +0.003 C 
BRANCH  10  11
ATOM     11  C   UNL     1     -12.583  11.093  70.851  0.00  0.00    +0.032 C 
BRANCH  11  12
ATOM     12  C   UNL     1     -12.995   9.862  71.613  0.00  0.00    +0.142 C 
BRANCH  12  13
ATOM     13  O   UNL     1     -12.362   8.712  71.163  0.00  0.00    -0.351 OA
BRANCH  13  14
ATOM     14  C   UNL     1     -11.831   8.001  72.224  0.00  0.00    +0.178 C 
BRANCH  14  15
ATOM     15  C   UNL     1     -10.341   8.319  72.264  0.00  0.00    +0.214 C 
ATOM     16  O   UNL     1      -9.754   8.080  71.022  0.00  0.00    -0.218 OA
ENDBRANCH  14  15
ENDBRANCH  13  14
ENDBRANCH  12  13
ENDBRANCH  11  12
ENDBRANCH  10  11
ENDBRANCH   9  10
ENDBRANCH   1   9
TORSDOF 13
ENDMDL
MODEL 8
REMARK VINA RESULT:      -4.2      3.212      7.550
REMARK  Name = 
REMARK  13 active torsions:
REMARK  status: ('A' for Active; 'I' for Inactive)
REMARK    1  A    between atoms: C_2  and  C_3
REMARK    2  A    between atoms: C_3  and  C_4
REMARK    3  A    between atoms: C_4  and  C_5
REMARK    4  A    between atoms: C_5  and  C_6
REMARK    5  A    between atoms: C_6  and  C_7
REMARK    6  A    between atoms: C_7  and  C_8
REMARK    7  A    between atoms: C_8  and  C_9
REMARK    8  A    between atoms: C_9  and  C_10
REMARK    9  A    between atoms: C_10  and  C_11
REMARK   10  A    between atoms: C_11  and  C_12
REMARK   11  A    between atoms: C_12  and  O_13
REMARK   12  A    between atoms: O_13  and  C_14
REMARK   13  A    between atoms: C_14  and  C_15
REMARK                            x       y       z     vdW  Elec       q    Type
REMARK                         _______ _______ _______ _____ _____    ______ ____
ROOT
ATOM      1  C   UNL     1     -10.338  14.530  68.091  0.00  0.00    +0.000 C 
ENDROOT
BRANCH   1   2
ATOM      2  C   UNL     1     -10.206  15.826  67.318  0.00  0.00    +0.000 C 
BRANCH   2   3
ATOM      3  C   UNL     1      -9.594  15.610  65.956  0.00  0.00    +0.000 C 
BRANCH   3   4
ATOM      4  C   UNL     1     -10.249  14.383  65.332  0.00  0.00    +0.000 C 
BRANCH   4   5
ATOM      5  C   UNL     1     -11.561  14.872  64.738  0.00  0.00    +0.000 C 
BRANCH   5   6
ATOM      6  C   UNL     1     -12.647  13.927  65.242  0.00  0.00    +0.000 C 
BRANCH   6   8
ATOM      7  C   UNL     1     -12.391  12.135  63.501  0.00  0.00    +0.000 C 
ATOM      8  C   UNL     1     -12.229  12.487  64.967  0.00  0.00    +0.000 C 
ENDBRANCH   6   8
ENDBRANCH   5   6
ENDBRANCH   4   5
ENDBRANCH   3   4
ENDBRANCH   2   3
ENDBRANCH   1   2
BRANCH   1   9
ATOM      9  C   UNL     1     -11.732  14.531  68.708  0.00  0.00    +0.000 C 
BRANCH   9  10
ATOM     10  C   UNL     1     -11.519  14.538  70.218  0.00  0.00    +0.003 C 
BRANCH  10  11
ATOM     11  C   UNL     1     -12.428  13.497  70.835  0.00  0.00    +0.032 C 
BRANCH  11  12
ATOM     12  C   UNL     1     -13.133  14.004  72.065  0.00  0.00    +0.142 C 
BRANCH  12  13
ATOM     13  O   UNL     1     -13.686  15.264  71.887  0.00  0.00    -0.351 OA
BRANCH  13  14
ATOM     14  C   UNL     1     -13.694  15.965  73.080  0.00  0.00    +0.178 C 
BRANCH  14  15
ATOM     15  C   UNL     1     -12.435  15.558  73.836  0.00  0.00    +0.214 C 
ATOM     16  O   UNL     1     -12.521  15.938  75.175  0.00  0.00    -0.218 OA
ENDBRANCH  14  15
ENDBRANCH  13  14
ENDBRANCH  12  13
ENDBRANCH  11  12
ENDBRANCH  10  11
ENDBRANCH   9  10
ENDBRANCH   1   9
TORSDOF 13
ENDMDL
MODEL 9
REMARK VINA RESULT:      -4.2      4.430      6.155
REMARK  Name = 
REMARK  13 active torsions:
REMARK  status: ('A' for Active; 'I' for Inactive)
REMARK    1  A    between atoms: C_2  and  C_3
REMARK    2  A    between atoms: C_3  and  C_4
REMARK    3  A    between atoms: C_4  and  C_5
REMARK    4  A    between atoms: C_5  and  C_6
REMARK    5  A    between atoms: C_6  and  C_7
REMARK    6  A    between atoms: C_7  and  C_8
REMARK    7  A    between atoms: C_8  and  C_9
REMARK    8  A    between atoms: C_9  and  C_10
REMARK    9  A    between atoms: C_10  and  C_11
REMARK   10  A    between atoms: C_11  and  C_12
REMARK   11  A    between atoms: C_12  and  O_13
REMARK   12  A    between atoms: O_13  and  C_14
REMARK   13  A    between atoms: C_14  and  C_15
REMARK                            x       y       z     vdW  Elec       q    Type
REMARK                         _______ _______ _______ _____ _____    ______ ____
ROOT
ATOM      1  C   UNL     1      -9.147  15.769  66.070  0.00  0.00    +0.000 C 
ENDROOT
BRANCH   1   2
ATOM      2  C   UNL     1      -7.820  15.926  66.782  0.00  0.00    +0.000 C 
BRANCH   2   3
ATOM      3  C   UNL     1      -7.240  17.308  66.595  0.00  0.00    +0.000 C 
BRANCH   3   4
ATOM      4  C   UNL     1      -7.311  18.035  67.933  0.00  0.00    +0.000 C 
BRANCH   4   5
ATOM      5  C   UNL     1      -8.157  19.274  67.686  0.00  0.00    +0.000 C 
BRANCH   5   6
ATOM      6  C   UNL     1      -9.476  19.055  68.419  0.00  0.00    +0.000 C 
BRANCH   6   8
ATOM      7  C   UNL     1     -10.134  19.763  66.101  0.00  0.00    +0.000 C 
ATOM      8  C   UNL     1     -10.633  19.350  67.471  0.00  0.00    +0.000 C 
ENDBRANCH   6   8
ENDBRANCH   5   6
ENDBRANCH   4   5
ENDBRANCH   3   4
ENDBRANCH   2   3
ENDBRANCH   1   2
BRANCH   1   9
ATOM      9  C   UNL     1     -10.211  15.644  67.155  0.00  0.00    +0.000 C 
BRANCH   9  10
ATOM     10  C   UNL     1      -9.644  14.674  68.185  0.00  0.00    +0.003 C 
BRANCH  10  11
ATOM     11  C   UNL     1     -10.223  13.300  67.921  0.00  0.00    +0.032 C 
BRANCH  11  12
ATOM     12  C   UNL     1     -11.674  13.353  67.526  0.00  0.00    +0.142 C 
BRANCH  12  13
ATOM     13  O   UNL     1     -12.058  12.276  66.741  0.00  0.00    -0.351 OA
BRANCH  13  14
ATOM     14  C   UNL     1     -11.993  12.603  65.399  0.00  0.00    +0.178 C 
BRANCH  14  15
ATOM     15  C   UNL     1     -12.713  13.937  65.238  0.00  0.00    +0.214 C 
ATOM     16  O   UNL     1     -12.627  14.386  63.921  0.00  0.00    -0.218 OA
ENDBRANCH  14  15
ENDBRANCH  13  14
ENDBRANCH  12  13
ENDBRANCH  11  12
ENDBRANCH  10  11
ENDBRANCH   9  10
ENDBRANCH   1   9
TORSDOF 13
ENDMDL
