MODEL 1
REMARK VINA RESULT:      -9.3      0.000      0.000
REMARK  Name = 
REMARK  0 active torsions:
REMARK  status: ('A' for Active; 'I' for Inactive)
REMARK                            x       y       z     vdW  Elec       q    Type
REMARK                         _______ _______ _______ _____ _____    ______ ____
ROOT
ATOM      1  C   UNL     1     -11.413  13.554  67.670  0.00  0.00    +0.003 C 
ATOM      2  C   UNL     1     -11.062  12.229  67.060  0.00  0.00    +0.034 C 
ATOM      3  C   UNL     1     -10.954  13.111  65.850  0.00  0.00    +0.136 C 
ATOM      4  O   UNL     1     -10.847  13.992  64.642  0.00  0.00    -0.456 OA
ATOM      5  C   UNL     1     -11.170  15.396  65.060  0.00  0.00    +0.317 C 
ATOM      6  O   UNL     1     -11.184  16.601  64.169  0.00  0.00    -0.250 OA
ATOM      7  C   UNL     1     -11.478  15.381  66.529  0.00  0.00    +0.113 C 
ATOM      8  C   UNL     1     -11.345  13.970  67.017  0.00  0.00    +0.052 C 
ATOM      9  C   UNL     1     -10.564  12.252  64.685  0.00  0.00    +0.037 C 
ATOM     10  C   UNL     1     -10.430  10.840  65.173  0.00  0.00    +0.004 C 
ATOM     11  C   UNL     1     -10.179  11.161  63.729  0.00  0.00    +0.004 C 
ATOM     12  C   UNL     1     -10.738  10.826  66.640  0.00  0.00    +0.003 C 
ATOM     13  C   UNL     1     -10.765   9.717  67.650  0.00  0.00    +0.001 C 
ATOM     14  C   UNL     1     -10.441   8.313  67.231  0.00  0.00    +0.004 C 
ATOM     15  C   UNL     1     -10.469   7.204  68.240  0.00  0.00    +0.018 C 
ATOM     16  C   UNL     1     -10.820   7.499  69.669  0.00  0.00    -0.042 C 
ATOM     17  C   UNL     1     -11.144   8.901  70.088  0.00  0.00    +0.016 C 
ATOM     18  C   UNL     1     -11.468  10.305  70.506  0.00  0.00    +0.004 C 
ATOM     19  C   UNL     1     -11.495   9.196  71.516  0.00  0.00    +0.012 C 
ATOM     20  C   UNL     1     -11.522   8.086  72.525  0.00  0.00    +0.069 C 
ATOM     21  C   UNL     1     -11.198   6.683  72.106  0.00  0.00    +0.173 C 
ATOM     22  O   UNL     1     -11.226   5.574  73.116  0.00  0.00    -0.291 OA
ATOM     23  C   UNL     1     -10.847   6.389  70.677  0.00  0.00    +0.029 C 
ATOM     24  C   UNL     1     -10.118   6.910  66.812  0.00  0.00    +0.004 C 
ATOM     25  C   UNL     1     -11.117  10.012  69.078  0.00  0.00    +0.003 C 
ATOM     26  C   UNL     1     -11.440  11.414  69.497  0.00  0.00    +0.000 C 
ATOM     27  C   UNL     1     -11.413  12.524  68.488  0.00  0.00    +0.003 C 
ENDROOT
TORSDOF 0
ENDMDL
MODEL 2
REMARK VINA RESULT:      -9.0      3.078      5.502
REMARK  Name = 
REMARK  0 active torsions:
REMARK  status: ('A' for Active; 'I' for Inactive)
REMARK                            x       y       z     vdW  Elec       q    Type
REMARK                         _______ _______ _______ _____ _____    ______ ____
ROOT
ATOM      1  C   UNL     1      -9.907  11.717  65.603  0.00  0.00    +0.003 C 
ATOM      2  C   UNL     1     -10.425  10.895  66.746  0.00  0.00    +0.034 C 
ATOM      3  C   UNL     1      -9.928   9.804  65.844  0.00  0.00    +0.136 C 
ATOM      4  O   UNL     1      -9.430   8.714  64.943  0.00  0.00    -0.456 OA
ATOM      5  C   UNL     1      -8.859   9.352  63.712  0.00  0.00    +0.317 C 
ATOM      6  O   UNL     1      -8.251   8.633  62.546  0.00  0.00    -0.250 OA
ATOM      7  C   UNL     1      -9.004  10.840  63.853  0.00  0.00    +0.113 C 
ATOM      8  C   UNL     1      -9.664  11.118  65.170  0.00  0.00    +0.052 C 
ATOM      9  C   UNL     1     -10.191   8.490  66.518  0.00  0.00    +0.037 C 
ATOM     10  C   UNL     1     -10.852   8.769  67.836  0.00  0.00    +0.004 C 
ATOM     11  C   UNL     1     -10.576   7.354  67.420  0.00  0.00    +0.004 C 
ATOM     12  C   UNL     1     -10.996  10.255  67.976  0.00  0.00    +0.003 C 
ATOM     13  C   UNL     1     -11.574  11.109  69.066  0.00  0.00    +0.001 C 
ATOM     14  C   UNL     1     -12.145  10.469  70.297  0.00  0.00    +0.004 C 
ATOM     15  C   UNL     1     -12.723  11.323  71.387  0.00  0.00    +0.018 C 
ATOM     16  C   UNL     1     -12.730  12.817  71.245  0.00  0.00    -0.042 C 
ATOM     17  C   UNL     1     -12.159  13.456  70.015  0.00  0.00    +0.016 C 
ATOM     18  C   UNL     1     -11.588  14.095  68.784  0.00  0.00    +0.004 C 
ATOM     19  C   UNL     1     -12.166  14.950  69.874  0.00  0.00    +0.012 C 
ATOM     20  C   UNL     1     -12.744  15.803  70.963  0.00  0.00    +0.069 C 
ATOM     21  C   UNL     1     -13.315  15.163  72.194  0.00  0.00    +0.173 C 
ATOM     22  O   UNL     1     -13.893  16.017  73.284  0.00  0.00    -0.291 OA
ATOM     23  C   UNL     1     -13.308  13.669  72.335  0.00  0.00    +0.029 C 
ATOM     24  C   UNL     1     -12.716   9.830  71.527  0.00  0.00    +0.004 C 
ATOM     25  C   UNL     1     -11.581  12.602  68.924  0.00  0.00    +0.003 C 
ATOM     26  C   UNL     1     -11.010  13.242  67.694  0.00  0.00    +0.000 C 
ATOM     27  C   UNL     1     -10.432  12.389  66.604  0.00  0.00    +0.003 C 
ENDROOT
TORSDOF 0
ENDMDL
MODEL 3
REMARK VINA RESULT:      -8.7      0.873      7.338
REMARK  Name = 
REMARK  0 active torsions:
REMARK  status: ('A' for Active; 'I' for Inactive)
REMARK                            x       y       z     vdW  Elec       q    Type
REMARK                         _______ _______ _______ _____ _____    ______ ____
ROOT
ATOM      1  C   UNL     1     -11.414   9.468  71.008  0.00  0.00    +0.003 C 
ATOM      2  C   UNL     1     -11.016   9.170  69.593  0.00  0.00    +0.034 C 
ATOM      3  C   UNL     1     -10.951   7.790  70.179  0.00  0.00    +0.136 C 
ATOM      4  O   UNL     1     -10.887   6.411  70.765  0.00  0.00    -0.456 OA
ATOM      5  C   UNL     1     -11.262   6.504  72.214  0.00  0.00    +0.317 C 
ATOM      6  O   UNL     1     -11.329   5.362  73.184  0.00  0.00    -0.250 OA
ATOM      7  C   UNL     1     -11.559   7.942  72.524  0.00  0.00    +0.113 C 
ATOM      8  C   UNL     1     -11.367   8.736  71.267  0.00  0.00    +0.052 C 
ATOM      9  C   UNL     1     -10.536   6.844  69.092  0.00  0.00    +0.037 C 
ATOM     10  C   UNL     1     -10.344   7.638  67.834  0.00  0.00    +0.004 C 
ATOM     11  C   UNL     1     -10.116   6.156  67.827  0.00  0.00    +0.004 C 
ATOM     12  C   UNL     1     -10.640   9.075  68.144  0.00  0.00    +0.003 C 
ATOM     13  C   UNL     1     -10.617  10.311  67.294  0.00  0.00    +0.001 C 
ATOM     14  C   UNL     1     -10.242  10.217  65.844  0.00  0.00    +0.004 C 
ATOM     15  C   UNL     1     -10.219  11.453  64.994  0.00  0.00    +0.018 C 
ATOM     16  C   UNL     1     -10.571  12.782  65.594  0.00  0.00    -0.042 C 
ATOM     17  C   UNL     1     -10.946  12.876  67.042  0.00  0.00    +0.016 C 
ATOM     18  C   UNL     1     -11.322  12.970  68.492  0.00  0.00    +0.004 C 
ATOM     19  C   UNL     1     -11.299  14.206  67.642  0.00  0.00    +0.012 C 
ATOM     20  C   UNL     1     -11.275  15.441  66.791  0.00  0.00    +0.069 C 
ATOM     21  C   UNL     1     -10.900  15.347  65.342  0.00  0.00    +0.173 C 
ATOM     22  O   UNL     1     -10.877  16.583  64.492  0.00  0.00    -0.291 OA
ATOM     23  C   UNL     1     -10.548  14.017  64.743  0.00  0.00    +0.029 C 
ATOM     24  C   UNL     1      -9.867  10.124  64.396  0.00  0.00    +0.004 C 
ATOM     25  C   UNL     1     -10.970  11.640  67.893  0.00  0.00    +0.003 C 
ATOM     26  C   UNL     1     -11.345  11.734  69.342  0.00  0.00    +0.000 C 
ATOM     27  C   UNL     1     -11.368  10.499  70.193  0.00  0.00    +0.003 C 
ENDROOT
TORSDOF 0
ENDMDL
MODEL 4
REMARK VINA RESULT:      -8.6      1.313      3.365
REMARK  Name = 
REMARK  0 active torsions:
REMARK  status: ('A' for Active; 'I' for Inactive)
REMARK                            x       y       z     vdW  Elec       q    Type
REMARK                         _______ _______ _______ _____ _____    ______ ____
ROOT
ATOM      1  C   UNL     1     -10.578  12.082  65.375  0.00  0.00    +0.003 C 
ATOM      2  C   UNL     1     -10.943  11.935  66.823  0.00  0.00    +0.034 C 
ATOM      3  C   UNL     1     -11.224  13.396  66.630  0.00  0.00    +0.136 C 
ATOM      4  O   UNL     1     -11.504  14.856  66.437  0.00  0.00    -0.456 OA
ATOM      5  C   UNL     1     -11.192  15.205  65.012  0.00  0.00    +0.317 C 
ATOM      6  O   UNL     1     -11.329  16.560  64.385  0.00  0.00    -0.250 OA
ATOM      7  C   UNL     1     -10.718  13.958  64.324  0.00  0.00    +0.113 C 
ATOM      8  C   UNL     1     -10.738  12.841  65.324  0.00  0.00    +0.052 C 
ATOM      9  C   UNL     1     -11.710  13.950  67.936  0.00  0.00    +0.037 C 
ATOM     10  C   UNL     1     -11.729  12.832  68.936  0.00  0.00    +0.004 C 
ATOM     11  C   UNL     1     -12.157  14.211  69.344  0.00  0.00    +0.004 C 
ATOM     12  C   UNL     1     -11.256  11.587  68.248  0.00  0.00    +0.003 C 
ATOM     13  C   UNL     1     -11.068  10.181  68.735  0.00  0.00    +0.001 C 
ATOM     14  C   UNL     1     -11.381   9.832  70.160  0.00  0.00    +0.004 C 
ATOM     15  C   UNL     1     -11.193   8.426  70.647  0.00  0.00    +0.018 C 
ATOM     16  C   UNL     1     -10.693   7.368  69.708  0.00  0.00    -0.042 C 
ATOM     17  C   UNL     1     -10.380   7.716  68.284  0.00  0.00    +0.016 C 
ATOM     18  C   UNL     1     -10.068   8.064  66.858  0.00  0.00    +0.004 C 
ATOM     19  C   UNL     1      -9.880   6.657  67.345  0.00  0.00    +0.012 C 
ATOM     20  C   UNL     1      -9.693   5.252  67.833  0.00  0.00    +0.069 C 
ATOM     21  C   UNL     1     -10.005   4.903  69.257  0.00  0.00    +0.173 C 
ATOM     22  O   UNL     1      -9.818   3.496  69.744  0.00  0.00    -0.291 OA
ATOM     23  C   UNL     1     -10.506   5.962  70.196  0.00  0.00    +0.029 C 
ATOM     24  C   UNL     1     -11.693   9.484  71.585  0.00  0.00    +0.004 C 
ATOM     25  C   UNL     1     -10.568   9.122  67.796  0.00  0.00    +0.003 C 
ATOM     26  C   UNL     1     -10.255   9.471  66.371  0.00  0.00    +0.000 C 
ATOM     27  C   UNL     1     -10.443  10.876  65.884  0.00  0.00    +0.003 C 
ENDROOT
TORSDOF 0
ENDMDL
MODEL 5
REMARK VINA RESULT:      -8.6      2.231      4.018
REMARK  Name = 
REMARK  0 active torsions:
REMARK  status: ('A' for Active; 'I' for Inactive)
REMARK                            x       y       z     vdW  Elec       q    Type
REMARK                         _______ _______ _______ _____ _____    ______ ____
ROOT
ATOM      1  C   UNL     1     -10.155  14.253  67.600  0.00  0.00    +0.003 C 
ATOM      2  C   UNL     1     -11.011  13.735  68.717  0.00  0.00    +0.034 C 
ATOM      3  C   UNL     1     -11.323  15.200  68.808  0.00  0.00    +0.136 C 
ATOM      4  O   UNL     1     -11.634  16.664  68.898  0.00  0.00    -0.456 OA
ATOM      5  C   UNL     1     -10.852  17.372  67.831  0.00  0.00    +0.317 C 
ATOM      6  O   UNL     1     -10.862  18.847  67.561  0.00  0.00    -0.250 OA
ATOM      7  C   UNL     1     -10.056  16.344  67.081  0.00  0.00    +0.113 C 
ATOM      8  C   UNL     1     -10.348  15.002  67.685  0.00  0.00    +0.052 C 
ATOM      9  C   UNL     1     -12.297  15.398  69.930  0.00  0.00    +0.037 C 
ATOM     10  C   UNL     1     -12.588  14.056  70.534  0.00  0.00    +0.004 C 
ATOM     11  C   UNL     1     -13.249  15.285  71.085  0.00  0.00    +0.004 C 
ATOM     12  C   UNL     1     -11.794  13.029  69.784  0.00  0.00    +0.003 C 
ATOM     13  C   UNL     1     -11.681  11.541  69.935  0.00  0.00    +0.001 C 
ATOM     14  C   UNL     1     -12.463  10.833  71.002  0.00  0.00    +0.004 C 
ATOM     15  C   UNL     1     -12.351   9.346  71.153  0.00  0.00    +0.018 C 
ATOM     16  C   UNL     1     -11.455   8.564  70.237  0.00  0.00    -0.042 C 
ATOM     17  C   UNL     1     -10.673   9.271  69.170  0.00  0.00    +0.016 C 
ATOM     18  C   UNL     1      -9.891   9.979  68.103  0.00  0.00    +0.004 C 
ATOM     19  C   UNL     1      -9.778   8.490  68.254  0.00  0.00    +0.012 C 
ATOM     20  C   UNL     1      -9.666   7.002  68.406  0.00  0.00    +0.069 C 
ATOM     21  C   UNL     1     -10.448   6.295  69.472  0.00  0.00    +0.173 C 
ATOM     22  O   UNL     1     -10.335   4.806  69.623  0.00  0.00    -0.291 OA
ATOM     23  C   UNL     1     -11.343   7.076  70.388  0.00  0.00    +0.029 C 
ATOM     24  C   UNL     1     -13.245  10.127  72.069  0.00  0.00    +0.004 C 
ATOM     25  C   UNL     1     -10.786  10.760  69.019  0.00  0.00    +0.003 C 
ATOM     26  C   UNL     1     -10.004  11.466  67.952  0.00  0.00    +0.000 C 
ATOM     27  C   UNL     1     -10.116  12.954  67.801  0.00  0.00    +0.003 C 
ENDROOT
TORSDOF 0
ENDMDL
MODEL 6
REMARK VINA RESULT:      -8.6      2.866      4.319
REMARK  Name = 
REMARK  0 active torsions:
REMARK  status: ('A' for Active; 'I' for Inactive)
REMARK                            x       y       z     vdW  Elec       q    Type
REMARK                         _______ _______ _______ _____ _____    ______ ____
ROOT
ATOM      1  C   UNL     1     -12.738  11.560  71.591  0.00  0.00    +0.003 C 
ATOM      2  C   UNL     1     -12.111  11.538  70.229  0.00  0.00    +0.034 C 
ATOM      3  C   UNL     1     -12.506  12.983  70.309  0.00  0.00    +0.136 C 
ATOM      4  O   UNL     1     -12.902  14.427  70.391  0.00  0.00    -0.456 OA
ATOM      5  C   UNL     1     -13.564  14.653  71.718  0.00  0.00    +0.317 C 
ATOM      6  O   UNL     1     -14.115  15.955  72.218  0.00  0.00    -0.250 OA
ATOM      7  C   UNL     1     -13.577  13.347  72.457  0.00  0.00    +0.113 C 
ATOM      8  C   UNL     1     -12.924  12.316  71.587  0.00  0.00    +0.052 C 
ATOM      9  C   UNL     1     -12.089  13.650  69.033  0.00  0.00    +0.037 C 
ATOM     10  C   UNL     1     -11.436  12.617  68.163  0.00  0.00    +0.004 C 
ATOM     11  C   UNL     1     -11.566  14.032  67.679  0.00  0.00    +0.004 C 
ATOM     12  C   UNL     1     -11.449  11.312  68.901  0.00  0.00    +0.003 C 
ATOM     13  C   UNL     1     -10.945   9.948  68.538  0.00  0.00    +0.001 C 
ATOM     14  C   UNL     1     -10.282   9.722  67.210  0.00  0.00    +0.004 C 
ATOM     15  C   UNL     1      -9.778   8.357  66.847  0.00  0.00    +0.018 C 
ATOM     16  C   UNL     1      -9.935   7.218  67.810  0.00  0.00    -0.042 C 
ATOM     17  C   UNL     1     -10.596   7.443  69.137  0.00  0.00    +0.016 C 
ATOM     18  C   UNL     1     -11.259   7.670  70.464  0.00  0.00    +0.004 C 
ATOM     19  C   UNL     1     -10.754   6.304  70.100  0.00  0.00    +0.012 C 
ATOM     20  C   UNL     1     -10.249   4.940  69.736  0.00  0.00    +0.069 C 
ATOM     21  C   UNL     1      -9.587   4.714  68.410  0.00  0.00    +0.173 C 
ATOM     22  O   UNL     1      -9.082   3.348  68.046  0.00  0.00    -0.291 OA
ATOM     23  C   UNL     1      -9.430   5.853  67.446  0.00  0.00    +0.029 C 
ATOM     24  C   UNL     1      -9.621   9.496  65.884  0.00  0.00    +0.004 C 
ATOM     25  C   UNL     1     -11.102   8.808  69.502  0.00  0.00    +0.003 C 
ATOM     26  C   UNL     1     -11.763   9.034  70.828  0.00  0.00    +0.000 C 
ATOM     27  C   UNL     1     -12.268  10.398  71.192  0.00  0.00    +0.003 C 
ENDROOT
TORSDOF 0
ENDMDL
MODEL 7
REMARK VINA RESULT:      -8.4      2.999      6.163
REMARK  Name = 
REMARK  0 active torsions:
REMARK  status: ('A' for Active; 'I' for Inactive)
REMARK                            x       y       z     vdW  Elec       q    Type
REMARK                         _______ _______ _______ _____ _____    ______ ____
ROOT
ATOM      1  C   UNL     1     -12.067  13.983  68.953  0.00  0.00    +0.003 C 
ATOM      2  C   UNL     1     -11.813  12.505  68.995  0.00  0.00    +0.034 C 
ATOM      3  C   UNL     1     -12.392  12.710  70.364  0.00  0.00    +0.136 C 
ATOM      4  O   UNL     1     -12.971  12.915  71.732  0.00  0.00    -0.456 OA
ATOM      5  C   UNL     1     -13.297  14.370  71.885  0.00  0.00    +0.317 C 
ATOM      6  O   UNL     1     -13.895  15.018  73.098  0.00  0.00    -0.250 OA
ATOM      7  C   UNL     1     -12.920  15.066  70.610  0.00  0.00    +0.113 C 
ATOM      8  C   UNL     1     -12.361  14.040  69.671  0.00  0.00    +0.052 C 
ATOM      9  C   UNL     1     -12.423  11.380  71.057  0.00  0.00    +0.037 C 
ATOM     10  C   UNL     1     -11.864  10.354  70.117  0.00  0.00    +0.004 C 
ATOM     11  C   UNL     1     -12.330   9.945  71.484  0.00  0.00    +0.004 C 
ATOM     12  C   UNL     1     -11.487  11.049  68.843  0.00  0.00    +0.003 C 
ATOM     13  C   UNL     1     -10.889  10.544  67.564  0.00  0.00    +0.001 C 
ATOM     14  C   UNL     1     -10.562   9.088  67.411  0.00  0.00    +0.004 C 
ATOM     15  C   UNL     1      -9.964   8.583  66.132  0.00  0.00    +0.018 C 
ATOM     16  C   UNL     1      -9.692   9.535  65.004  0.00  0.00    -0.042 C 
ATOM     17  C   UNL     1     -10.018  10.991  65.157  0.00  0.00    +0.016 C 
ATOM     18  C   UNL     1     -10.345  12.447  65.309  0.00  0.00    +0.004 C 
ATOM     19  C   UNL     1      -9.746  11.943  64.029  0.00  0.00    +0.012 C 
ATOM     20  C   UNL     1      -9.148  11.437  62.750  0.00  0.00    +0.069 C 
ATOM     21  C   UNL     1      -8.822   9.982  62.598  0.00  0.00    +0.173 C 
ATOM     22  O   UNL     1      -8.223   9.477  61.317  0.00  0.00    -0.291 OA
ATOM     23  C   UNL     1      -9.094   9.030  63.725  0.00  0.00    +0.029 C 
ATOM     24  C   UNL     1     -10.236   7.632  67.259  0.00  0.00    +0.004 C 
ATOM     25  C   UNL     1     -10.617  11.496  66.436  0.00  0.00    +0.003 C 
ATOM     26  C   UNL     1     -10.943  12.952  66.589  0.00  0.00    +0.000 C 
ATOM     27  C   UNL     1     -11.541  13.457  67.868  0.00  0.00    +0.003 C 
ENDROOT
TORSDOF 0
ENDMDL
MODEL 8
REMARK VINA RESULT:      -8.4      1.307      1.369
REMARK  Name = 
REMARK  0 active torsions:
REMARK  status: ('A' for Active; 'I' for Inactive)
REMARK                            x       y       z     vdW  Elec       q    Type
REMARK                         _______ _______ _______ _____ _____    ______ ____
ROOT
ATOM      1  C   UNL     1     -11.858  12.425  67.665  0.00  0.00    +0.003 C 
ATOM      2  C   UNL     1     -11.096  11.221  67.197  0.00  0.00    +0.034 C 
ATOM      3  C   UNL     1     -11.222  11.969  65.903  0.00  0.00    +0.136 C 
ATOM      4  O   UNL     1     -11.348  12.717  64.610  0.00  0.00    -0.456 OA
ATOM      5  C   UNL     1     -12.102  13.986  64.878  0.00  0.00    +0.317 C 
ATOM      6  O   UNL     1     -12.454  15.034  63.866  0.00  0.00    -0.250 OA
ATOM      7  C   UNL     1     -12.442  14.021  66.339  0.00  0.00    +0.113 C 
ATOM      8  C   UNL     1     -11.898  12.775  66.972  0.00  0.00    +0.052 C 
ATOM      9  C   UNL     1     -10.546  11.163  64.834  0.00  0.00    +0.037 C 
ATOM     10  C   UNL     1     -10.002   9.917  65.467  0.00  0.00    +0.004 C 
ATOM     11  C   UNL     1      -9.811  10.156  63.999  0.00  0.00    +0.004 C 
ATOM     12  C   UNL     1     -10.342   9.952  66.927  0.00  0.00    +0.003 C 
ATOM     13  C   UNL     1     -10.062   8.994  68.047  0.00  0.00    +0.001 C 
ATOM     14  C   UNL     1      -9.308   7.725  67.778  0.00  0.00    +0.004 C 
ATOM     15  C   UNL     1      -9.029   6.767  68.897  0.00  0.00    +0.018 C 
ATOM     16  C   UNL     1      -9.504   7.077  70.286  0.00  0.00    -0.042 C 
ATOM     17  C   UNL     1     -10.257   8.345  70.555  0.00  0.00    +0.016 C 
ATOM     18  C   UNL     1     -11.012   9.614  70.825  0.00  0.00    +0.004 C 
ATOM     19  C   UNL     1     -10.732   8.655  71.945  0.00  0.00    +0.012 C 
ATOM     20  C   UNL     1     -10.452   7.697  73.063  0.00  0.00    +0.069 C 
ATOM     21  C   UNL     1      -9.699   6.429  72.794  0.00  0.00    +0.173 C 
ATOM     22  O   UNL     1      -9.419   5.470  73.914  0.00  0.00    -0.291 OA
ATOM     23  C   UNL     1      -9.224   6.118  71.405  0.00  0.00    +0.029 C 
ATOM     24  C   UNL     1      -8.554   6.457  67.509  0.00  0.00    +0.004 C 
ATOM     25  C   UNL     1     -10.537   9.304  69.436  0.00  0.00    +0.003 C 
ATOM     26  C   UNL     1     -11.291  10.572  69.705  0.00  0.00    +0.000 C 
ATOM     27  C   UNL     1     -11.571  11.531  68.586  0.00  0.00    +0.003 C 
ENDROOT
TORSDOF 0
ENDMDL
MODEL 9
REMARK VINA RESULT:      -8.3      2.215      8.062
REMARK  Name = 
REMARK  0 active torsions:
REMARK  status: ('A' for Active; 'I' for Inactive)
REMARK                            x       y       z     vdW  Elec       q    Type
REMARK                         _______ _______ _______ _____ _____    ______ ____
ROOT
ATOM      1  C   UNL     1      -9.993   9.688  68.383  0.00  0.00    +0.003 C 
ATOM      2  C   UNL     1     -10.798  10.705  69.137  0.00  0.00    +0.034 C 
ATOM      3  C   UNL     1     -11.228   9.454  69.846  0.00  0.00    +0.136 C 
ATOM      4  O   UNL     1     -11.658   8.204  70.553  0.00  0.00    -0.456 OA
ATOM      5  C   UNL     1     -10.941   7.045  69.926  0.00  0.00    +0.317 C 
ATOM      6  O   UNL     1     -11.074   5.605  70.323  0.00  0.00    -0.250 OA
ATOM      7  C   UNL     1     -10.068   7.580  68.828  0.00  0.00    +0.113 C 
ATOM      8  C   UNL     1     -10.246   9.068  68.780  0.00  0.00    +0.052 C 
ATOM      9  C   UNL     1     -12.210   9.839  70.911  0.00  0.00    +0.037 C 
ATOM     10  C   UNL     1     -12.388  11.328  70.862  0.00  0.00    +0.004 C 
ATOM     11  C   UNL     1     -13.144  10.516  71.871  0.00  0.00    +0.004 C 
ATOM     12  C   UNL     1     -11.515  11.863  69.766  0.00  0.00    +0.003 C 
ATOM     13  C   UNL     1     -11.280  13.254  69.258  0.00  0.00    +0.001 C 
ATOM     14  C   UNL     1     -11.997  14.413  69.887  0.00  0.00    +0.004 C 
ATOM     15  C   UNL     1     -11.762  15.805  69.379  0.00  0.00    +0.018 C 
ATOM     16  C   UNL     1     -10.810  16.038  68.243  0.00  0.00    -0.042 C 
ATOM     17  C   UNL     1     -10.094  14.880  67.615  0.00  0.00    +0.016 C 
ATOM     18  C   UNL     1      -9.377  13.721  66.987  0.00  0.00    +0.004 C 
ATOM     19  C   UNL     1      -9.142  15.114  66.479  0.00  0.00    +0.012 C 
ATOM     20  C   UNL     1      -8.908  16.506  65.972  0.00  0.00    +0.069 C 
ATOM     21  C   UNL     1      -9.624  17.664  66.600  0.00  0.00    +0.173 C 
ATOM     22  O   UNL     1      -9.389  19.056  66.092  0.00  0.00    -0.291 OA
ATOM     23  C   UNL     1     -10.576  17.430  67.736  0.00  0.00    +0.029 C 
ATOM     24  C   UNL     1     -12.714  15.571  70.514  0.00  0.00    +0.004 C 
ATOM     25  C   UNL     1     -10.328  13.488  68.122  0.00  0.00    +0.003 C 
ATOM     26  C   UNL     1      -9.612  12.330  67.494  0.00  0.00    +0.000 C 
ATOM     27  C   UNL     1      -9.846  10.938  68.001  0.00  0.00    +0.003 C 
ENDROOT
TORSDOF 0
ENDMDL
