MODEL 1
REMARK VINA RESULT:      -7.9      0.000      0.000
REMARK  Name = 
REMARK  8 active torsions:
REMARK  status: ('A' for Active; 'I' for Inactive)
REMARK    1  A    between atoms: O_2  and  C_3
REMARK    2  A    between atoms: C_7  and  O_8
REMARK    3  A    between atoms: O_8  and  C_9
REMARK    4  A    between atoms: C_15  and  C_16
REMARK    5  A    between atoms: N_18  and  S_19
REMARK    6  A    between atoms: S_19  and  C_22
REMARK    7  A    between atoms: C_40  and  C_41
REMARK    8  A    between atoms: C_43  and  C_44
REMARK                            x       y       z     vdW  Elec       q    Type
REMARK                         _______ _______ _______ _____ _____    ______ ____
ROOT
ATOM      1  C   UNL     1      -8.184  16.110  68.613  0.00  0.00    +0.167 C 
ATOM      2  C   UNL     1      -9.728  15.572  68.688  0.00  0.00    +0.053 C 
ATOM      3  C   UNL     1      -9.939  14.516  67.490  0.00  0.00    +0.089 C 
ATOM      4  C   UNL     1      -8.312  14.435  66.916  0.00  0.00    +0.090 C 
ATOM      5  C   UNL     1      -7.638  14.084  68.345  0.00  0.00    +0.242 C 
ATOM      6  N   UNL     1      -7.820  12.732  68.603  0.00  0.00    -0.200 NA
ATOM      7  C   UNL     1      -8.590  11.722  68.105  0.00  0.00    +0.154 C 
ATOM      8  C   UNL     1      -8.585  11.753  66.436  0.00  0.00    +0.051 C 
ATOM      9  C   UNL     1      -9.736  10.535  66.291  0.00  0.00    -0.029 C 
ATOM     10  C   UNL     1     -10.823  11.083  65.776  0.00  0.00    -0.031 C 
ATOM     11  C   UNL     1     -10.603  11.846  64.502  0.00  0.00    +0.026 C 
ATOM     12  C   UNL     1     -11.928  12.002  63.788  0.00  0.00    +0.006 C 
ATOM     13  C   UNL     1     -12.435  13.402  64.112  0.00  0.00    +0.022 C 
ATOM     14  C   UNL     1     -11.853  13.788  65.455  0.00  0.00    +0.093 C 
ATOM     15  N   UNL     1     -11.098  15.030  65.282  0.00  0.00    -0.278 N 
ATOM     16  C   UNL     1     -11.558  15.938  64.250  0.00  0.00    +0.115 C 
ATOM     17  C   UNL     1      -7.505  10.747  67.254  0.00  0.00    +0.036 C 
ATOM     18  O   UNL     1      -6.407  14.416  68.274  0.00  0.00    -0.273 OA
ATOM     19  C   UNL     1     -10.344  15.606  66.358  0.00  0.00    +0.226 C 
ATOM     20  O   UNL     1     -10.614  16.752  66.697  0.00  0.00    -0.275 OA
ATOM     21  C   UNL     1      -8.171  16.066  66.950  0.00  0.00    +0.053 C 
ENDROOT
BRANCH   7  22
ATOM     22  C   UNL     1      -9.541  10.868  68.740  0.00  0.00    +0.280 C 
ATOM     23  N   UNL     1      -9.259   9.648  69.443  0.00  0.00    -0.062 NA
ATOM     24  O   UNL     1     -10.558  11.453  69.226  0.00  0.00    -0.270 OA
BRANCH  23  25
ATOM     25  S   UNL     1     -10.421   8.798  70.367  0.00  0.00    +0.074 S 
ATOM     26  O   UNL     1     -10.232   9.186  71.817  0.00  0.00    -0.153 OA
ATOM     27  O   UNL     1     -11.839   9.212  70.037  0.00  0.00    -0.153 OA
BRANCH  25  28
ATOM     28  C   UNL     1     -10.215   7.035  70.228  0.00  0.00    +0.151 C 
ATOM     29  C   UNL     1     -11.309   6.278  71.031  0.00  0.00    +0.027 C 
ATOM     30  C   UNL     1     -11.298   6.244  69.515  0.00  0.00    +0.027 C 
ENDBRANCH  25  28
ENDBRANCH  23  25
ENDBRANCH   7  22
BRANCH   1  31
ATOM     31  O   UNL     1      -8.640  17.612  68.642  0.00  0.00    -0.479 OA
BRANCH  31  37
ATOM     32  C   UNL     1      -6.113  20.569  65.487  0.00  0.00    +0.136 A 
ATOM     33  C   UNL     1      -5.700  20.883  66.777  0.00  0.00    +0.030 A 
ATOM     34  C   UNL     1      -4.366  21.556  66.875  0.00  0.00    +0.036 C 
ATOM     35  C   UNL     1      -6.084  20.131  67.882  0.00  0.00    +0.083 A 
ATOM     36  C   UNL     1      -7.292  19.449  67.772  0.00  0.00    +0.052 A 
ATOM     37  C   UNL     1      -7.539  18.474  68.735  0.00  0.00    +0.141 A 
ATOM     38  C   UNL     1      -6.479  17.949  69.471  0.00  0.00    +0.058 A 
ATOM     39  C   UNL     1      -5.203  18.503  69.386  0.00  0.00    +0.108 A 
ATOM     40  C   UNL     1      -7.903  19.354  66.527  0.00  0.00    +0.008 A 
ATOM     41  N   UNL     1      -5.235  19.766  68.877  0.00  0.00    -0.243 NA
ATOM     42  C   UNL     1      -7.351  19.945  65.394  0.00  0.00    +0.037 A 
BRANCH  39  43
ATOM     43  C   UNL     1      -4.005  17.646  69.262  0.00  0.00    +0.128 A 
ATOM     44  S   UNL     1      -3.249  16.940  67.895  0.00  0.00    -0.065 S 
ATOM     45  C   UNL     1      -2.527  15.596  68.692  0.00  0.00    +0.052 A 
ATOM     46  C   UNL     1      -3.125  15.701  69.947  0.00  0.00    +0.066 A 
ATOM     47  N   UNL     1      -3.333  17.002  70.249  0.00  0.00    -0.241 NA
BRANCH  46  48
ATOM     48  C   UNL     1      -3.302  14.576  70.931  0.00  0.00    +0.041 C 
ATOM     49  C   UNL     1      -4.571  14.804  71.747  0.00  0.00    +0.006 C 
ATOM     50  C   UNL     1      -3.544  13.283  70.155  0.00  0.00    +0.006 C 
ENDBRANCH  46  48
ENDBRANCH  39  43
BRANCH  32  52
ATOM     51  C   UNL     1      -5.253  19.369  63.544  0.00  0.00    +0.252 C 
ATOM     52  O   UNL     1      -5.229  20.475  64.407  0.00  0.00    -0.472 OA
ENDBRANCH  32  52
ENDBRANCH  31  37
ENDBRANCH   1  31
TORSDOF 8
ENDMDL
MODEL 2
REMARK VINA RESULT:      -7.8      3.950     10.581
REMARK  Name = 
REMARK  8 active torsions:
REMARK  status: ('A' for Active; 'I' for Inactive)
REMARK    1  A    between atoms: O_2  and  C_3
REMARK    2  A    between atoms: C_7  and  O_8
REMARK    3  A    between atoms: O_8  and  C_9
REMARK    4  A    between atoms: C_15  and  C_16
REMARK    5  A    between atoms: N_18  and  S_19
REMARK    6  A    between atoms: S_19  and  C_22
REMARK    7  A    between atoms: C_40  and  C_41
REMARK    8  A    between atoms: C_43  and  C_44
REMARK                            x       y       z     vdW  Elec       q    Type
REMARK                         _______ _______ _______ _____ _____    ______ ____
ROOT
ATOM      1  C   UNL     1     -10.152   9.542  69.557  0.00  0.00    +0.167 C 
ATOM      2  C   UNL     1      -8.854  10.195  68.803  0.00  0.00    +0.053 C 
ATOM      3  C   UNL     1      -9.283  10.533  67.288  0.00  0.00    +0.089 C 
ATOM      4  C   UNL     1     -10.965  10.159  67.398  0.00  0.00    +0.090 C 
ATOM      5  C   UNL     1     -11.273  11.104  68.675  0.00  0.00    +0.242 C 
ATOM      6  N   UNL     1     -11.394  12.417  68.239  0.00  0.00    -0.200 NA
ATOM      7  C   UNL     1     -11.098  13.117  67.107  0.00  0.00    +0.154 C 
ATOM      8  C   UNL     1     -11.569  12.263  65.752  0.00  0.00    +0.051 C 
ATOM      9  C   UNL     1     -10.877  13.354  64.675  0.00  0.00    -0.029 C 
ATOM     10  C   UNL     1      -9.877  12.732  64.077  0.00  0.00    -0.031 C 
ATOM     11  C   UNL     1     -10.237  11.421  63.441  0.00  0.00    +0.026 C 
ATOM     12  C   UNL     1      -9.179  11.061  62.420  0.00  0.00    +0.006 C 
ATOM     13  C   UNL     1      -8.245  10.063  63.094  0.00  0.00    +0.022 C 
ATOM     14  C   UNL     1      -8.296  10.339  64.582  0.00  0.00    +0.093 C 
ATOM     15  N   UNL     1      -8.707   9.108  65.258  0.00  0.00    -0.278 N 
ATOM     16  C   UNL     1      -8.334   7.858  64.626  0.00  0.00    +0.115 C 
ATOM     17  C   UNL     1     -12.600  13.430  66.400  0.00  0.00    +0.036 C 
ATOM     18  O   UNL     1     -12.337  10.662  69.225  0.00  0.00    -0.273 OA
ATOM     19  C   UNL     1      -8.940   9.070  66.673  0.00  0.00    +0.226 C 
ATOM     20  O   UNL     1      -8.289   8.276  67.340  0.00  0.00    -0.275 OA
ATOM     21  C   UNL     1     -10.649   8.755  68.178  0.00  0.00    +0.053 C 
ENDROOT
BRANCH   7  22
ATOM     22  C   UNL     1     -10.270  14.261  66.901  0.00  0.00    +0.280 C 
ATOM     23  N   UNL     1     -10.640  15.633  67.114  0.00  0.00    -0.062 NA
ATOM     24  O   UNL     1      -9.031  14.082  67.114  0.00  0.00    -0.270 OA
BRANCH  23  25
ATOM     25  S   UNL     1      -9.528  16.931  67.062  0.00  0.00    +0.074 S 
ATOM     26  O   UNL     1      -8.544  16.744  68.197  0.00  0.00    -0.153 OA
ATOM     27  O   UNL     1      -8.680  16.918  65.809  0.00  0.00    -0.153 OA
BRANCH  25  28
ATOM     28  C   UNL     1     -10.337  18.503  67.277  0.00  0.00    +0.151 C 
ATOM     29  C   UNL     1      -9.351  19.679  67.031  0.00  0.00    +0.027 C 
ATOM     30  C   UNL     1     -10.483  19.403  66.061  0.00  0.00    +0.027 C 
ENDBRANCH  25  28
ENDBRANCH  23  25
ENDBRANCH   7  22
BRANCH   1  31
ATOM     31  O   UNL     1      -9.322   8.305  70.051  0.00  0.00    -0.479 OA
BRANCH  31  37
ATOM     32  C   UNL     1      -6.009   7.926  73.789  0.00  0.00    +0.136 A 
ATOM     33  C   UNL     1      -7.258   8.154  74.357  0.00  0.00    +0.030 A 
ATOM     34  C   UNL     1      -7.394   7.735  75.788  0.00  0.00    +0.036 C 
ATOM     35  C   UNL     1      -8.428   8.143  73.605  0.00  0.00    +0.083 A 
ATOM     36  C   UNL     1      -8.296   8.467  72.258  0.00  0.00    +0.052 A 
ATOM     37  C   UNL     1      -9.388   8.175  71.445  0.00  0.00    +0.141 A 
ATOM     38  C   UNL     1     -10.340   7.254  71.876  0.00  0.00    +0.058 A 
ATOM     39  C   UNL     1     -10.314   6.750  73.175  0.00  0.00    +0.108 A 
ATOM     40  C   UNL     1      -7.025   8.536  71.701  0.00  0.00    +0.008 A 
ATOM     41  N   UNL     1      -9.574   7.536  74.005  0.00  0.00    -0.243 NA
ATOM     42  C   UNL     1      -5.879   8.314  72.460  0.00  0.00    +0.037 A 
BRANCH  39  43
ATOM     43  C   UNL     1     -10.511   5.309  73.439  0.00  0.00    +0.128 A 
ATOM     44  S   UNL     1     -10.213   4.358  74.833  0.00  0.00    -0.065 S 
ATOM     45  C   UNL     1      -9.970   2.848  74.042  0.00  0.00    +0.052 A 
ATOM     46  C   UNL     1      -9.935   3.268  72.713  0.00  0.00    +0.066 A 
ATOM     47  N   UNL     1     -10.763   4.322  72.543  0.00  0.00    -0.241 NA
BRANCH  46  48
ATOM     48  C   UNL     1      -9.274   2.532  71.579  0.00  0.00    +0.041 C 
ATOM     49  C   UNL     1      -9.971   1.192  71.362  0.00  0.00    +0.006 C 
ATOM     50  C   UNL     1      -9.498   3.321  70.289  0.00  0.00    +0.006 C 
ENDBRANCH  46  48
ENDBRANCH  39  43
BRANCH  32  52
ATOM     51  C   UNL     1      -4.912   5.745  73.739  0.00  0.00    +0.252 C 
ATOM     52  O   UNL     1      -5.089   7.013  74.316  0.00  0.00    -0.472 OA
ENDBRANCH  32  52
ENDBRANCH  31  37
ENDBRANCH   1  31
TORSDOF 8
ENDMDL
MODEL 3
REMARK VINA RESULT:      -7.7      4.012     10.383
REMARK  Name = 
REMARK  8 active torsions:
REMARK  status: ('A' for Active; 'I' for Inactive)
REMARK    1  A    between atoms: O_2  and  C_3
REMARK    2  A    between atoms: C_7  and  O_8
REMARK    3  A    between atoms: O_8  and  C_9
REMARK    4  A    between atoms: C_15  and  C_16
REMARK    5  A    between atoms: N_18  and  S_19
REMARK    6  A    between atoms: S_19  and  C_22
REMARK    7  A    between atoms: C_40  and  C_41
REMARK    8  A    between atoms: C_43  and  C_44
REMARK                            x       y       z     vdW  Elec       q    Type
REMARK                         _______ _______ _______ _____ _____    ______ ____
ROOT
ATOM      1  C   UNL     1     -10.065   9.527  69.527  0.00  0.00    +0.167 C 
ATOM      2  C   UNL     1      -8.787  10.202  68.760  0.00  0.00    +0.053 C 
ATOM      3  C   UNL     1      -9.237  10.535  67.250  0.00  0.00    +0.089 C 
ATOM      4  C   UNL     1     -10.912  10.133  67.378  0.00  0.00    +0.090 C 
ATOM      5  C   UNL     1     -11.222  11.071  68.659  0.00  0.00    +0.242 C 
ATOM      6  N   UNL     1     -11.370  12.382  68.226  0.00  0.00    -0.200 NA
ATOM      7  C   UNL     1     -11.098  13.088  67.092  0.00  0.00    +0.154 C 
ATOM      8  C   UNL     1     -11.569  12.228  65.741  0.00  0.00    +0.051 C 
ATOM      9  C   UNL     1     -10.907  13.333  64.659  0.00  0.00    -0.029 C 
ATOM     10  C   UNL     1      -9.903  12.728  64.049  0.00  0.00    -0.031 C 
ATOM     11  C   UNL     1     -10.248  11.412  63.415  0.00  0.00    +0.026 C 
ATOM     12  C   UNL     1      -9.195  11.072  62.382  0.00  0.00    +0.006 C 
ATOM     13  C   UNL     1      -8.237  10.089  63.045  0.00  0.00    +0.022 C 
ATOM     14  C   UNL     1      -8.276  10.362  64.534  0.00  0.00    +0.093 C 
ATOM     15  N   UNL     1      -8.659   9.123  65.211  0.00  0.00    -0.278 N 
ATOM     16  C   UNL     1      -8.272   7.881  64.574  0.00  0.00    +0.115 C 
ATOM     17  C   UNL     1     -12.612  13.377  66.403  0.00  0.00    +0.036 C 
ATOM     18  O   UNL     1     -12.273  10.610  69.220  0.00  0.00    -0.273 OA
ATOM     19  C   UNL     1      -8.877   9.079  66.629  0.00  0.00    +0.226 C 
ATOM     20  O   UNL     1      -8.205   8.296  67.288  0.00  0.00    -0.275 OA
ATOM     21  C   UNL     1     -10.564   8.733  68.152  0.00  0.00    +0.053 C 
ENDROOT
BRANCH   7  22
ATOM     22  C   UNL     1     -10.292  14.247  66.880  0.00  0.00    +0.280 C 
ATOM     23  N   UNL     1     -10.686  15.612  67.091  0.00  0.00    -0.062 NA
ATOM     24  O   UNL     1      -9.049  14.091  67.087  0.00  0.00    -0.270 OA
BRANCH  23  25
ATOM     25  S   UNL     1      -9.598  16.931  67.030  0.00  0.00    +0.074 S 
ATOM     26  O   UNL     1      -8.608  16.766  68.162  0.00  0.00    -0.153 OA
ATOM     27  O   UNL     1      -8.752  16.927  65.775  0.00  0.00    -0.153 OA
BRANCH  25  28
ATOM     28  C   UNL     1     -10.434  18.488  67.240  0.00  0.00    +0.151 C 
ATOM     29  C   UNL     1      -9.419  19.661  67.343  0.00  0.00    +0.027 C 
ATOM     30  C   UNL     1     -10.316  19.518  66.129  0.00  0.00    +0.027 C 
ENDBRANCH  25  28
ENDBRANCH  23  25
ENDBRANCH   7  22
BRANCH   1  31
ATOM     31  O   UNL     1      -9.209   8.303  70.010  0.00  0.00    -0.479 OA
BRANCH  31  37
ATOM     32  C   UNL     1      -5.110   7.391  72.740  0.00  0.00    +0.136 A 
ATOM     33  C   UNL     1      -5.977   8.143  73.525  0.00  0.00    +0.030 A 
ATOM     34  C   UNL     1      -5.749   8.045  75.001  0.00  0.00    +0.036 C 
ATOM     35  C   UNL     1      -7.280   8.426  73.127  0.00  0.00    +0.083 A 
ATOM     36  C   UNL     1      -7.512   8.452  71.756  0.00  0.00    +0.052 A 
ATOM     37  C   UNL     1      -8.846   8.440  71.357  0.00  0.00    +0.141 A 
ATOM     38  C   UNL     1      -9.827   8.006  72.247  0.00  0.00    +0.058 A 
ATOM     39  C   UNL     1      -9.521   7.751  73.582  0.00  0.00    +0.108 A 
ATOM     40  C   UNL     1      -6.534   7.967  70.895  0.00  0.00    +0.008 A 
ATOM     41  N   UNL     1      -8.354   8.345  73.954  0.00  0.00    -0.243 NA
ATOM     42  C   UNL     1      -5.319   7.480  71.368  0.00  0.00    +0.037 A 
BRANCH  39  43
ATOM     43  C   UNL     1     -10.029   6.541  74.263  0.00  0.00    +0.128 A 
ATOM     44  S   UNL     1      -9.501   5.726  75.675  0.00  0.00    -0.065 S 
ATOM     45  C   UNL     1     -10.080   4.156  75.273  0.00  0.00    +0.052 A 
ATOM     46  C   UNL     1     -10.460   4.364  73.947  0.00  0.00    +0.066 A 
ATOM     47  N   UNL     1     -10.915   5.627  73.793  0.00  0.00    -0.241 NA
BRANCH  46  48
ATOM     48  C   UNL     1     -10.579   3.298  72.892  0.00  0.00    +0.041 C 
ATOM     49  C   UNL     1      -9.189   2.813  72.494  0.00  0.00    +0.006 C 
ATOM     50  C   UNL     1     -11.275   2.083  73.503  0.00  0.00    +0.006 C 
ENDBRANCH  46  48
ENDBRANCH  39  43
BRANCH  32  52
ATOM     51  C   UNL     1      -4.751   4.986  72.963  0.00  0.00    +0.252 C 
ATOM     52  O   UNL     1      -4.375   6.311  73.239  0.00  0.00    -0.472 OA
ENDBRANCH  32  52
ENDBRANCH  31  37
ENDBRANCH   1  31
TORSDOF 8
ENDMDL
MODEL 4
REMARK VINA RESULT:      -7.5      3.867     11.200
REMARK  Name = 
REMARK  8 active torsions:
REMARK  status: ('A' for Active; 'I' for Inactive)
REMARK    1  A    between atoms: O_2  and  C_3
REMARK    2  A    between atoms: C_7  and  O_8
REMARK    3  A    between atoms: O_8  and  C_9
REMARK    4  A    between atoms: C_15  and  C_16
REMARK    5  A    between atoms: N_18  and  S_19
REMARK    6  A    between atoms: S_19  and  C_22
REMARK    7  A    between atoms: C_40  and  C_41
REMARK    8  A    between atoms: C_43  and  C_44
REMARK                            x       y       z     vdW  Elec       q    Type
REMARK                         _______ _______ _______ _____ _____    ______ ____
ROOT
ATOM      1  C   UNL     1      -9.639   9.558  69.705  0.00  0.00    +0.167 C 
ATOM      2  C   UNL     1      -8.438  10.223  68.813  0.00  0.00    +0.053 C 
ATOM      3  C   UNL     1      -9.032  10.546  67.351  0.00  0.00    +0.089 C 
ATOM      4  C   UNL     1     -10.688  10.152  67.644  0.00  0.00    +0.090 C 
ATOM      5  C   UNL     1     -10.869  11.100  68.942  0.00  0.00    +0.242 C 
ATOM      6  N   UNL     1     -11.055  12.409  68.515  0.00  0.00    -0.200 NA
ATOM      7  C   UNL     1     -10.891  13.105  67.355  0.00  0.00    +0.154 C 
ATOM      8  C   UNL     1     -11.494  12.237  66.063  0.00  0.00    +0.051 C 
ATOM      9  C   UNL     1     -10.937  13.332  64.913  0.00  0.00    -0.029 C 
ATOM     10  C   UNL     1      -9.998  12.719  64.213  0.00  0.00    -0.031 C 
ATOM     11  C   UNL     1     -10.407  11.399  63.626  0.00  0.00    +0.026 C 
ATOM     12  C   UNL     1      -9.460  11.048  62.498  0.00  0.00    +0.006 C 
ATOM     13  C   UNL     1      -8.446  10.066  63.072  0.00  0.00    +0.022 C 
ATOM     14  C   UNL     1      -8.340  10.349  64.556  0.00  0.00    +0.093 C 
ATOM     15  N   UNL     1      -8.659   9.117  65.277  0.00  0.00    -0.278 N 
ATOM     16  C   UNL     1      -8.340   7.868  64.615  0.00  0.00    +0.115 C 
ATOM     17  C   UNL     1     -12.464  13.395  66.813  0.00  0.00    +0.036 C 
ATOM     18  O   UNL     1     -11.862  10.648  69.605  0.00  0.00    -0.273 OA
ATOM     19  C   UNL     1      -8.738   9.085  66.709  0.00  0.00    +0.226 C 
ATOM     20  O   UNL     1      -8.008   8.303  67.306  0.00  0.00    -0.275 OA
ATOM     21  C   UNL     1     -10.271   8.756  68.391  0.00  0.00    +0.053 C 
ENDROOT
BRANCH   7  22
ATOM     22  C   UNL     1     -10.106  14.260  67.056  0.00  0.00    +0.280 C 
ATOM     23  N   UNL     1     -10.482  15.629  67.274  0.00  0.00    -0.062 NA
ATOM     24  O   UNL     1      -8.850  14.106  67.164  0.00  0.00    -0.270 OA
BRANCH  23  25
ATOM     25  S   UNL     1      -9.403  16.945  67.101  0.00  0.00    +0.074 S 
ATOM     26  O   UNL     1      -8.372  16.846  68.204  0.00  0.00    -0.153 OA
ATOM     27  O   UNL     1      -8.604  16.873  65.818  0.00  0.00    -0.153 OA
BRANCH  25  28
ATOM     28  C   UNL     1     -10.239  18.509  67.254  0.00  0.00    +0.151 C 
ATOM     29  C   UNL     1      -9.312  19.684  66.835  0.00  0.00    +0.027 C 
ATOM     30  C   UNL     1     -10.509  19.302  65.987  0.00  0.00    +0.027 C 
ENDBRANCH  25  28
ENDBRANCH  23  25
ENDBRANCH   7  22
BRANCH   1  31
ATOM     31  O   UNL     1      -8.744   8.335  70.113  0.00  0.00    -0.479 OA
BRANCH  31  37
ATOM     32  C   UNL     1      -8.233   7.069  74.932  0.00  0.00    +0.136 A 
ATOM     33  C   UNL     1      -9.468   6.595  74.503  0.00  0.00    +0.030 A 
ATOM     34  C   UNL     1     -10.043   5.480  75.319  0.00  0.00    +0.036 C 
ATOM     35  C   UNL     1      -9.853   6.632  73.166  0.00  0.00    +0.083 A 
ATOM     36  C   UNL     1      -9.270   7.626  72.386  0.00  0.00    +0.052 A 
ATOM     37  C   UNL     1      -9.416   7.492  71.008  0.00  0.00    +0.141 A 
ATOM     38  C   UNL     1      -9.742   6.249  70.468  0.00  0.00    +0.058 A 
ATOM     39  C   UNL     1     -10.096   5.181  71.290  0.00  0.00    +0.108 A 
ATOM     40  C   UNL     1      -8.193   8.341  72.896  0.00  0.00    +0.008 A 
ATOM     41  N   UNL     1     -10.467   5.601  72.531  0.00  0.00    -0.243 NA
ATOM     42  C   UNL     1      -7.698   8.105  74.176  0.00  0.00    +0.037 A 
BRANCH  39  43
ATOM     43  C   UNL     1      -9.550   3.827  71.060  0.00  0.00    +0.128 A 
ATOM     44  S   UNL     1      -9.339   2.916  69.623  0.00  0.00    -0.065 S 
ATOM     45  C   UNL     1      -9.422   1.346  70.324  0.00  0.00    +0.052 A 
ATOM     46  C   UNL     1      -9.826   1.673  71.618  0.00  0.00    +0.066 A 
ATOM     47  N   UNL     1      -9.293   2.862  71.978  0.00  0.00    -0.241 NA
BRANCH  46  48
ATOM     48  C   UNL     1     -10.544   0.756  72.571  0.00  0.00    +0.041 C 
ATOM     49  C   UNL     1     -11.482   1.570  73.457  0.00  0.00    +0.006 C 
ATOM     50  C   UNL     1     -11.450  -0.174  71.764  0.00  0.00    +0.006 C 
ENDBRANCH  46  48
ENDBRANCH  39  43
BRANCH  32  52
ATOM     51  C   UNL     1      -6.154   6.857  76.193  0.00  0.00    +0.252 C 
ATOM     52  O   UNL     1      -7.382   6.331  75.760  0.00  0.00    -0.472 OA
ENDBRANCH  32  52
ENDBRANCH  31  37
ENDBRANCH   1  31
TORSDOF 8
ENDMDL
MODEL 5
REMARK VINA RESULT:      -7.5      3.920     11.061
REMARK  Name = 
REMARK  8 active torsions:
REMARK  status: ('A' for Active; 'I' for Inactive)
REMARK    1  A    between atoms: O_2  and  C_3
REMARK    2  A    between atoms: C_7  and  O_8
REMARK    3  A    between atoms: O_8  and  C_9
REMARK    4  A    between atoms: C_15  and  C_16
REMARK    5  A    between atoms: N_18  and  S_19
REMARK    6  A    between atoms: S_19  and  C_22
REMARK    7  A    between atoms: C_40  and  C_41
REMARK    8  A    between atoms: C_43  and  C_44
REMARK                            x       y       z     vdW  Elec       q    Type
REMARK                         _______ _______ _______ _____ _____    ______ ____
ROOT
ATOM      1  C   UNL     1      -9.896   9.905  69.727  0.00  0.00    +0.167 C 
ATOM      2  C   UNL     1      -8.671  10.569  68.868  0.00  0.00    +0.053 C 
ATOM      3  C   UNL     1      -9.203  10.827  67.370  0.00  0.00    +0.089 C 
ATOM      4  C   UNL     1     -10.861  10.400  67.600  0.00  0.00    +0.090 C 
ATOM      5  C   UNL     1     -11.126  11.388  68.854  0.00  0.00    +0.242 C 
ATOM      6  N   UNL     1     -11.323  12.675  68.372  0.00  0.00    -0.200 NA
ATOM      7  C   UNL     1     -11.122  13.335  67.196  0.00  0.00    +0.154 C 
ATOM      8  C   UNL     1     -11.642  12.408  65.910  0.00  0.00    +0.051 C 
ATOM      9  C   UNL     1     -11.058  13.476  64.748  0.00  0.00    -0.029 C 
ATOM     10  C   UNL     1     -10.073  12.863  64.114  0.00  0.00    -0.031 C 
ATOM     11  C   UNL     1     -10.422  11.514  63.557  0.00  0.00    +0.026 C 
ATOM     12  C   UNL     1      -9.415  11.148  62.488  0.00  0.00    +0.006 C 
ATOM     13  C   UNL     1      -8.406  10.213  63.143  0.00  0.00    +0.022 C 
ATOM     14  C   UNL     1      -8.376  10.551  64.619  0.00  0.00    +0.093 C 
ATOM     15  N   UNL     1      -8.699   9.336  65.368  0.00  0.00    -0.278 N 
ATOM     16  C   UNL     1      -8.319   8.074  64.766  0.00  0.00    +0.115 C 
ATOM     17  C   UNL     1     -12.674  13.566  66.573  0.00  0.00    +0.036 C 
ATOM     18  O   UNL     1     -12.138  10.933  69.487  0.00  0.00    -0.273 OA
ATOM     19  C   UNL     1      -8.845   9.352  66.795  0.00  0.00    +0.226 C 
ATOM     20  O   UNL     1      -8.124   8.610  67.453  0.00  0.00    -0.275 OA
ATOM     21  C   UNL     1     -10.446   9.042  68.416  0.00  0.00    +0.053 C 
ENDROOT
BRANCH   7  22
ATOM     22  C   UNL     1     -10.351  14.499  66.893  0.00  0.00    +0.280 C 
ATOM     23  N   UNL     1     -10.709  15.859  67.182  0.00  0.00    -0.062 NA
ATOM     24  O   UNL     1      -9.092  14.339  66.921  0.00  0.00    -0.270 OA
BRANCH  23  25
ATOM     25  S   UNL     1      -9.638  17.179  66.992  0.00  0.00    +0.074 S 
ATOM     26  O   UNL     1      -8.607  17.101  68.097  0.00  0.00    -0.153 OA
ATOM     27  O   UNL     1      -8.837  17.096  65.710  0.00  0.00    -0.153 OA
BRANCH  25  28
ATOM     28  C   UNL     1     -10.483  18.741  67.125  0.00  0.00    +0.151 C 
ATOM     29  C   UNL     1      -9.484  19.928  67.031  0.00  0.00    +0.027 C 
ATOM     30  C   UNL     1     -10.477  19.661  65.916  0.00  0.00    +0.027 C 
ENDBRANCH  25  28
ENDBRANCH  23  25
ENDBRANCH   7  22
BRANCH   1  31
ATOM     31  O   UNL     1      -8.991   8.720  70.219  0.00  0.00    -0.479 OA
BRANCH  31  37
ATOM     32  C   UNL     1      -9.797   6.054  74.382  0.00  0.00    +0.136 A 
ATOM     33  C   UNL     1     -10.748   5.666  73.445  0.00  0.00    +0.030 A 
ATOM     34  C   UNL     1     -11.362   4.320  73.679  0.00  0.00    +0.036 C 
ATOM     35  C   UNL     1     -10.703   6.093  72.122  0.00  0.00    +0.083 A 
ATOM     36  C   UNL     1     -10.074   7.312  71.891  0.00  0.00    +0.052 A 
ATOM     37  C   UNL     1      -9.764   7.603  70.564  0.00  0.00    +0.141 A 
ATOM     38  C   UNL     1      -9.707   6.573  69.629  0.00  0.00    +0.058 A 
ATOM     39  C   UNL     1     -10.123   5.283  69.955  0.00  0.00    +0.108 A 
ATOM     40  C   UNL     1      -9.333   7.895  72.912  0.00  0.00    +0.008 A 
ATOM     41  N   UNL     1     -10.920   5.276  71.059  0.00  0.00    -0.243 NA
ATOM     42  C   UNL     1      -9.225   7.303  74.168  0.00  0.00    +0.037 A 
BRANCH  39  43
ATOM     43  C   UNL     1      -9.325   4.102  69.565  0.00  0.00    +0.128 A 
ATOM     44  S   UNL     1      -7.832   3.496  70.148  0.00  0.00    -0.065 S 
ATOM     45  C   UNL     1      -7.330   2.684  68.715  0.00  0.00    +0.052 A 
ATOM     46  C   UNL     1      -8.295   3.143  67.820  0.00  0.00    +0.066 A 
ATOM     47  N   UNL     1      -9.470   3.323  68.463  0.00  0.00    -0.241 NA
BRANCH  46  48
ATOM     48  C   UNL     1      -8.144   3.206  66.324  0.00  0.00    +0.041 C 
ATOM     49  C   UNL     1      -8.587   1.882  65.708  0.00  0.00    +0.006 C 
ATOM     50  C   UNL     1      -9.113   4.254  65.779  0.00  0.00    +0.006 C 
ENDBRANCH  46  48
ENDBRANCH  39  43
BRANCH  32  52
ATOM     51  C   UNL     1      -7.855   4.669  74.900  0.00  0.00    +0.252 C 
ATOM     52  O   UNL     1      -9.136   5.146  75.216  0.00  0.00    -0.472 OA
ENDBRANCH  32  52
ENDBRANCH  31  37
ENDBRANCH   1  31
TORSDOF 8
ENDMDL
MODEL 6
REMARK VINA RESULT:      -7.0      5.406     10.384
REMARK  Name = 
REMARK  8 active torsions:
REMARK  status: ('A' for Active; 'I' for Inactive)
REMARK    1  A    between atoms: O_2  and  C_3
REMARK    2  A    between atoms: C_7  and  O_8
REMARK    3  A    between atoms: O_8  and  C_9
REMARK    4  A    between atoms: C_15  and  C_16
REMARK    5  A    between atoms: N_18  and  S_19
REMARK    6  A    between atoms: S_19  and  C_22
REMARK    7  A    between atoms: C_40  and  C_41
REMARK    8  A    between atoms: C_43  and  C_44
REMARK                            x       y       z     vdW  Elec       q    Type
REMARK                         _______ _______ _______ _____ _____    ______ ____
ROOT
ATOM      1  C   UNL     1     -10.411   7.849  71.050  0.00  0.00    +0.167 C 
ATOM      2  C   UNL     1      -8.881   7.286  71.195  0.00  0.00    +0.053 C 
ATOM      3  C   UNL     1      -8.764   6.541  72.618  0.00  0.00    +0.089 C 
ATOM      4  C   UNL     1     -10.421   6.620  73.098  0.00  0.00    +0.090 C 
ATOM      5  C   UNL     1     -11.026   5.951  71.754  0.00  0.00    +0.242 C 
ATOM      6  N   UNL     1     -10.868   4.574  71.833  0.00  0.00    -0.200 NA
ATOM      7  C   UNL     1     -10.155   3.700  72.598  0.00  0.00    +0.154 C 
ATOM      8  C   UNL     1     -10.249   4.124  74.210  0.00  0.00    +0.051 C 
ATOM      9  C   UNL     1      -9.141   2.959  74.706  0.00  0.00    -0.029 C 
ATOM     10  C   UNL     1      -8.070   3.598  75.141  0.00  0.00    -0.031 C 
ATOM     11  C   UNL     1      -8.337   4.643  76.184  0.00  0.00    +0.026 C 
ATOM     12  C   UNL     1      -7.048   4.945  76.919  0.00  0.00    +0.006 C 
ATOM     13  C   UNL     1      -6.486   6.222  76.305  0.00  0.00    +0.022 C 
ATOM     14  C   UNL     1      -6.984   6.288  74.877  0.00  0.00    +0.093 C 
ATOM     15  N   UNL     1      -7.712   7.545  74.709  0.00  0.00    -0.278 N 
ATOM     16  C   UNL     1      -7.284   8.665  75.523  0.00  0.00    +0.115 C 
ATOM     17  C   UNL     1     -11.310   2.969  73.589  0.00  0.00    +0.036 C 
ATOM     18  O   UNL     1     -12.249   6.308  71.672  0.00  0.00    -0.273 OA
ATOM     19  C   UNL     1      -8.391   7.862  73.484  0.00  0.00    +0.226 C 
ATOM     20  O   UNL     1      -8.071   8.891  72.902  0.00  0.00    -0.275 OA
ATOM     21  C   UNL     1     -10.515   8.199  72.673  0.00  0.00    +0.053 C 
ENDROOT
BRANCH   7  22
ATOM     22  C   UNL     1      -9.194   2.707  72.240  0.00  0.00    +0.280 C 
ATOM     23  N   UNL     1      -9.472   1.366  71.807  0.00  0.00    -0.062 NA
ATOM     24  O   UNL     1      -8.127   3.148  71.710  0.00  0.00    -0.270 OA
BRANCH  23  25
ATOM     25  S   UNL     1      -8.283   0.308  71.182  0.00  0.00    +0.074 S 
ATOM     26  O   UNL     1      -8.941  -1.031  70.927  0.00  0.00    -0.153 OA
ATOM     27  O   UNL     1      -7.769   0.749  69.828  0.00  0.00    -0.153 OA
BRANCH  25  28
ATOM     28  C   UNL     1      -6.945   0.064  72.331  0.00  0.00    +0.151 C 
ATOM     29  C   UNL     1      -7.480  -0.247  73.756  0.00  0.00    +0.027 C 
ATOM     30  C   UNL     1      -6.773  -1.315  72.944  0.00  0.00    +0.027 C 
ENDBRANCH  25  28
ENDBRANCH  23  25
ENDBRANCH   7  22
BRANCH   1  31
ATOM     31  O   UNL     1      -9.913   9.295  70.696  0.00  0.00    -0.479 OA
BRANCH  31  37
ATOM     32  C   UNL     1      -8.659   9.787  65.872  0.00  0.00    +0.136 A 
ATOM     33  C   UNL     1     -10.029  10.008  65.974  0.00  0.00    +0.030 A 
ATOM     34  C   UNL     1     -10.635  10.788  64.848  0.00  0.00    +0.036 C 
ATOM     35  C   UNL     1     -10.673  10.112  67.202  0.00  0.00    +0.083 A 
ATOM     36  C   UNL     1     -10.077   9.444  68.267  0.00  0.00    +0.052 A 
ATOM     37  C   UNL     1     -10.538   9.776  69.539  0.00  0.00    +0.141 A 
ATOM     38  C   UNL     1     -11.223  10.974  69.730  0.00  0.00    +0.058 A 
ATOM     39  C   UNL     1     -11.608  11.762  68.647  0.00  0.00    +0.108 A 
ATOM     40  C   UNL     1      -8.791   8.939  68.114  0.00  0.00    +0.008 A 
ATOM     41  N   UNL     1     -11.610  11.053  67.484  0.00  0.00    -0.243 NA
ATOM     42  C   UNL     1      -8.094   9.063  66.915  0.00  0.00    +0.037 A 
BRANCH  39  43
ATOM     43  C   UNL     1     -11.418  13.228  68.663  0.00  0.00    +0.128 A 
ATOM     44  S   UNL     1     -10.004  14.191  68.561  0.00  0.00    -0.065 S 
ATOM     45  C   UNL     1     -10.594  15.568  69.410  0.00  0.00    +0.052 A 
ATOM     46  C   UNL     1     -11.801  15.062  69.893  0.00  0.00    +0.066 A 
ATOM     47  N   UNL     1     -12.318  14.183  69.007  0.00  0.00    -0.241 NA
BRANCH  46  48
ATOM     48  C   UNL     1     -12.548  15.576  71.093  0.00  0.00    +0.041 C 
ATOM     49  C   UNL     1     -13.814  14.751  71.300  0.00  0.00    +0.006 C 
ATOM     50  C   UNL     1     -11.697  15.335  72.339  0.00  0.00    +0.006 C 
ENDBRANCH  46  48
ENDBRANCH  39  43
BRANCH  32  52
ATOM     51  C   UNL     1      -6.559  10.087  64.664  0.00  0.00    +0.252 C 
ATOM     52  O   UNL     1      -7.823  10.556  65.056  0.00  0.00    -0.472 OA
ENDBRANCH  32  52
ENDBRANCH  31  37
ENDBRANCH   1  31
TORSDOF 8
ENDMDL
MODEL 7
REMARK VINA RESULT:      -6.8      3.822      7.031
REMARK  Name = 
REMARK  8 active torsions:
REMARK  status: ('A' for Active; 'I' for Inactive)
REMARK    1  A    between atoms: O_2  and  C_3
REMARK    2  A    between atoms: C_7  and  O_8
REMARK    3  A    between atoms: O_8  and  C_9
REMARK    4  A    between atoms: C_15  and  C_16
REMARK    5  A    between atoms: N_18  and  S_19
REMARK    6  A    between atoms: S_19  and  C_22
REMARK    7  A    between atoms: C_40  and  C_41
REMARK    8  A    between atoms: C_43  and  C_44
REMARK                            x       y       z     vdW  Elec       q    Type
REMARK                         _______ _______ _______ _____ _____    ______ ____
ROOT
ATOM      1  C   UNL     1      -9.044  11.156  67.038  0.00  0.00    +0.167 C 
ATOM      2  C   UNL     1      -9.897   9.811  66.658  0.00  0.00    +0.053 C 
ATOM      3  C   UNL     1      -8.844   8.635  66.340  0.00  0.00    +0.089 C 
ATOM      4  C   UNL     1      -7.387   9.458  66.768  0.00  0.00    +0.090 C 
ATOM      5  C   UNL     1      -7.860   9.893  68.253  0.00  0.00    +0.242 C 
ATOM      6  N   UNL     1      -7.723   8.803  69.102  0.00  0.00    -0.200 NA
ATOM      7  C   UNL     1      -7.532   7.459  68.967  0.00  0.00    +0.154 C 
ATOM      8  C   UNL     1      -6.359   7.149  67.821  0.00  0.00    +0.051 C 
ATOM      9  C   UNL     1      -6.590   5.483  67.861  0.00  0.00    -0.029 C 
ATOM     10  C   UNL     1      -7.086   5.129  66.689  0.00  0.00    -0.031 C 
ATOM     11  C   UNL     1      -6.292   5.588  65.501  0.00  0.00    +0.026 C 
ATOM     12  C   UNL     1      -6.671   4.748  64.301  0.00  0.00    +0.006 C 
ATOM     13  C   UNL     1      -7.669   5.569  63.493  0.00  0.00    +0.022 C 
ATOM     14  C   UNL     1      -8.376   6.492  64.462  0.00  0.00    +0.093 C 
ATOM     15  N   UNL     1      -8.177   7.868  64.005  0.00  0.00    -0.278 N 
ATOM     16  C   UNL     1      -8.029   8.069  62.577  0.00  0.00    +0.115 C 
ATOM     17  C   UNL     1      -5.934   7.211  69.453  0.00  0.00    +0.036 C 
ATOM     18  O   UNL     1      -7.142  10.889  68.602  0.00  0.00    -0.273 OA
ATOM     19  C   UNL     1      -8.648   8.988  64.768  0.00  0.00    +0.226 C 
ATOM     20  O   UNL     1      -9.426   9.764  64.226  0.00  0.00    -0.275 OA
ATOM     21  C   UNL     1      -7.846  10.795  65.942  0.00  0.00    +0.053 C 
ENDROOT
BRANCH   7  22
ATOM     22  C   UNL     1      -8.306   6.351  69.426  0.00  0.00    +0.280 C 
ATOM     23  N   UNL     1      -8.246   5.747  70.728  0.00  0.00    -0.062 NA
ATOM     24  O   UNL     1      -9.472   6.260  68.931  0.00  0.00    -0.270 OA
BRANCH  23  25
ATOM     25  S   UNL     1      -9.359   4.571  71.277  0.00  0.00    +0.074 S 
ATOM     26  O   UNL     1      -8.891   4.087  72.632  0.00  0.00    -0.153 OA
ATOM     27  O   UNL     1     -10.736   5.148  71.528  0.00  0.00    -0.153 OA
BRANCH  25  28
ATOM     28  C   UNL     1      -9.437   3.171  70.179  0.00  0.00    +0.151 C 
ATOM     29  C   UNL     1      -8.016   2.629  69.859  0.00  0.00    +0.027 C 
ATOM     30  C   UNL     1      -8.980   1.822  70.707  0.00  0.00    +0.027 C 
ENDBRANCH  25  28
ENDBRANCH  23  25
ENDBRANCH   7  22
BRANCH   1  31
ATOM     31  O   UNL     1      -9.834  12.026  65.996  0.00  0.00    -0.479 OA
BRANCH  31  37
ATOM     32  C   UNL     1      -8.470  16.431  67.951  0.00  0.00    +0.136 A 
ATOM     33  C   UNL     1      -9.857  16.425  67.859  0.00  0.00    +0.030 A 
ATOM     34  C   UNL     1     -10.561  17.389  68.762  0.00  0.00    +0.036 C 
ATOM     35  C   UNL     1     -10.572  15.284  67.512  0.00  0.00    +0.083 A 
ATOM     36  C   UNL     1      -9.900  14.352  66.727  0.00  0.00    +0.052 A 
ATOM     37  C   UNL     1     -10.489  13.094  66.623  0.00  0.00    +0.141 A 
ATOM     38  C   UNL     1     -11.431  12.696  67.569  0.00  0.00    +0.058 A 
ATOM     39  C   UNL     1     -11.923  13.594  68.514  0.00  0.00    +0.108 A 
ATOM     40  C   UNL     1      -8.528  14.484  66.548  0.00  0.00    +0.008 A 
ATOM     41  N   UNL     1     -11.708  14.885  68.141  0.00  0.00    -0.243 NA
ATOM     42  C   UNL     1      -7.814  15.537  67.112  0.00  0.00    +0.037 A 
BRANCH  39  43
ATOM     43  C   UNL     1     -12.063  13.207  69.934  0.00  0.00    +0.128 A 
ATOM     44  S   UNL     1     -12.453  11.710  70.671  0.00  0.00    -0.065 S 
ATOM     45  C   UNL     1     -13.133  12.332  72.125  0.00  0.00    +0.052 A 
ATOM     46  C   UNL     1     -13.189  13.689  71.811  0.00  0.00    +0.066 A 
ATOM     47  N   UNL     1     -12.147  14.020  71.017  0.00  0.00    -0.241 NA
BRANCH  46  48
ATOM     48  C   UNL     1     -14.114  14.696  72.439  0.00  0.00    +0.041 C 
ATOM     49  C   UNL     1     -13.320  15.930  72.859  0.00  0.00    +0.006 C 
ATOM     50  C   UNL     1     -15.096  15.187  71.375  0.00  0.00    +0.006 C 
ENDBRANCH  46  48
ENDBRANCH  39  43
BRANCH  32  52
ATOM     51  C   UNL     1      -6.420  17.273  68.975  0.00  0.00    +0.252 C 
ATOM     52  O   UNL     1      -7.783  16.946  69.055  0.00  0.00    -0.472 OA
ENDBRANCH  32  52
ENDBRANCH  31  37
ENDBRANCH   1  31
TORSDOF 8
ENDMDL
MODEL 8
REMARK VINA RESULT:      -6.8      4.449      9.632
REMARK  Name = 
REMARK  8 active torsions:
REMARK  status: ('A' for Active; 'I' for Inactive)
REMARK    1  A    between atoms: O_2  and  C_3
REMARK    2  A    between atoms: C_7  and  O_8
REMARK    3  A    between atoms: O_8  and  C_9
REMARK    4  A    between atoms: C_15  and  C_16
REMARK    5  A    between atoms: N_18  and  S_19
REMARK    6  A    between atoms: S_19  and  C_22
REMARK    7  A    between atoms: C_40  and  C_41
REMARK    8  A    between atoms: C_43  and  C_44
REMARK                            x       y       z     vdW  Elec       q    Type
REMARK                         _______ _______ _______ _____ _____    ______ ____
ROOT
ATOM      1  C   UNL     1     -10.093   8.402  70.197  0.00  0.00    +0.167 C 
ATOM      2  C   UNL     1      -8.693   7.563  70.070  0.00  0.00    +0.053 C 
ATOM      3  C   UNL     1      -8.369   6.923  71.512  0.00  0.00    +0.089 C 
ATOM      4  C   UNL     1      -9.825   7.364  72.331  0.00  0.00    +0.090 C 
ATOM      5  C   UNL     1     -10.839   6.723  71.246  0.00  0.00    +0.242 C 
ATOM      6  N   UNL     1     -10.908   5.352  71.455  0.00  0.00    -0.200 NA
ATOM      7  C   UNL     1     -10.194   4.418  72.145  0.00  0.00    +0.154 C 
ATOM      8  C   UNL     1      -9.826   4.978  73.674  0.00  0.00    +0.051 C 
ATOM      9  C   UNL     1      -8.850   3.660  74.052  0.00  0.00    -0.029 C 
ATOM     10  C   UNL     1      -7.612   4.109  74.160  0.00  0.00    -0.031 C 
ATOM     11  C   UNL     1      -7.437   5.265  75.101  0.00  0.00    +0.026 C 
ATOM     12  C   UNL     1      -5.979   5.365  75.492  0.00  0.00    +0.006 C 
ATOM     13  C   UNL     1      -5.368   6.454  74.619  0.00  0.00    +0.022 C 
ATOM     14  C   UNL     1      -6.173   6.504  73.338  0.00  0.00    +0.093 C 
ATOM     15  N   UNL     1      -6.692   7.863  73.181  0.00  0.00    -0.278 N 
ATOM     16  C   UNL     1      -5.895   8.937  73.739  0.00  0.00    +0.115 C 
ATOM     17  C   UNL     1     -11.188   4.008  73.448  0.00  0.00    +0.036 C 
ATOM     18  O   UNL     1     -11.967   7.306  71.391  0.00  0.00    -0.273 OA
ATOM     19  C   UNL     1      -7.578   8.209  72.107  0.00  0.00    +0.226 C 
ATOM     20  O   UNL     1      -7.234   9.107  71.347  0.00  0.00    -0.275 OA
ATOM     21  C   UNL     1      -9.744   8.892  71.748  0.00  0.00    +0.053 C 
ENDROOT
BRANCH   7  22
ATOM     22  C   UNL     1      -9.533   3.230  71.708  0.00  0.00    +0.280 C 
ATOM     23  N   UNL     1     -10.121   1.927  71.572  0.00  0.00    -0.062 NA
ATOM     24  O   UNL     1      -8.603   3.406  70.862  0.00  0.00    -0.270 OA
BRANCH  23  25
ATOM     25  S   UNL     1      -9.327   0.605  70.831  0.00  0.00    +0.074 S 
ATOM     26  O   UNL     1     -10.202  -0.617  71.007  0.00  0.00    -0.153 OA
ATOM     27  O   UNL     1      -9.197   0.774  69.333  0.00  0.00    -0.153 OA
BRANCH  25  28
ATOM     28  C   UNL     1      -7.747   0.276  71.583  0.00  0.00    +0.151 C 
ATOM     29  C   UNL     1      -7.873   0.169  73.129  0.00  0.00    +0.027 C 
ATOM     30  C   UNL     1      -7.556  -1.054  72.291  0.00  0.00    +0.027 C 
ENDBRANCH  25  28
ENDBRANCH  23  25
ENDBRANCH   7  22
BRANCH   1  31
ATOM     31  O   UNL     1      -9.451   9.689  69.568  0.00  0.00    -0.479 OA
BRANCH  31  37
ATOM     32  C   UNL     1     -10.174  10.882  64.758  0.00  0.00    +0.136 A 
ATOM     33  C   UNL     1     -11.331  11.221  65.452  0.00  0.00    +0.030 A 
ATOM     34  C   UNL     1     -12.199  12.242  64.785  0.00  0.00    +0.036 C 
ATOM     35  C   UNL     1     -11.402  11.175  66.841  0.00  0.00    +0.083 A 
ATOM     36  C   UNL     1     -10.548  10.274  67.470  0.00  0.00    +0.052 A 
ATOM     37  C   UNL     1     -10.399  10.426  68.847  0.00  0.00    +0.141 A 
ATOM     38  C   UNL     1     -10.742  11.636  69.446  0.00  0.00    +0.058 A 
ATOM     39  C   UNL     1     -11.392  12.635  68.725  0.00  0.00    +0.108 A 
ATOM     40  C   UNL     1      -9.534   9.675  66.732  0.00  0.00    +0.008 A 
ATOM     41  N   UNL     1     -11.977  12.143  67.598  0.00  0.00    -0.243 NA
ATOM     42  C   UNL     1      -9.366   9.934  65.375  0.00  0.00    +0.037 A 
BRANCH  39  43
ATOM     43  C   UNL     1     -10.972  14.049  68.829  0.00  0.00    +0.128 A 
ATOM     44  S   UNL     1     -11.763  15.425  69.474  0.00  0.00    -0.065 S 
ATOM     45  C   UNL     1     -10.980  16.620  68.514  0.00  0.00    +0.052 A 
ATOM     46  C   UNL     1     -10.304  15.806  67.606  0.00  0.00    +0.066 A 
ATOM     47  N   UNL     1      -9.928  14.658  68.212  0.00  0.00    -0.241 NA
BRANCH  46  48
ATOM     48  C   UNL     1      -9.845  16.216  66.234  0.00  0.00    +0.041 C 
ATOM     49  C   UNL     1      -8.355  16.543  66.268  0.00  0.00    +0.006 C 
ATOM     50  C   UNL     1      -9.977  15.017  65.296  0.00  0.00    +0.006 C 
ENDBRANCH  46  48
ENDBRANCH  39  43
BRANCH  32  52
ATOM     51  C   UNL     1      -9.192  11.148  62.539  0.00  0.00    +0.252 C 
ATOM     52  O   UNL     1      -9.621  11.691  63.761  0.00  0.00    -0.472 OA
ENDBRANCH  32  52
ENDBRANCH  31  37
ENDBRANCH   1  31
TORSDOF 8
ENDMDL
MODEL 9
REMARK VINA RESULT:      -6.7      3.313      9.628
REMARK  Name = 
REMARK  8 active torsions:
REMARK  status: ('A' for Active; 'I' for Inactive)
REMARK    1  A    between atoms: O_2  and  C_3
REMARK    2  A    between atoms: C_7  and  O_8
REMARK    3  A    between atoms: O_8  and  C_9
REMARK    4  A    between atoms: C_15  and  C_16
REMARK    5  A    between atoms: N_18  and  S_19
REMARK    6  A    between atoms: S_19  and  C_22
REMARK    7  A    between atoms: C_40  and  C_41
REMARK    8  A    between atoms: C_43  and  C_44
REMARK                            x       y       z     vdW  Elec       q    Type
REMARK                         _______ _______ _______ _____ _____    ______ ____
ROOT
ATOM      1  C   UNL     1      -5.765  14.590  69.359  0.00  0.00    +0.167 C 
ATOM      2  C   UNL     1      -6.006  15.017  67.797  0.00  0.00    +0.053 C 
ATOM      3  C   UNL     1      -6.895  16.359  67.785  0.00  0.00    +0.089 C 
ATOM      4  C   UNL     1      -6.929  16.672  69.483  0.00  0.00    +0.090 C 
ATOM      5  C   UNL     1      -5.327  16.631  69.702  0.00  0.00    +0.242 C 
ATOM      6  N   UNL     1      -4.790  17.844  69.293  0.00  0.00    -0.200 NA
ATOM      7  C   UNL     1      -5.209  18.919  68.566  0.00  0.00    +0.154 C 
ATOM      8  C   UNL     1      -6.752  19.365  69.020  0.00  0.00    +0.051 C 
ATOM      9  C   UNL     1      -6.904  20.522  67.808  0.00  0.00    -0.029 C 
ATOM     10  C   UNL     1      -7.837  20.096  66.975  0.00  0.00    -0.031 C 
ATOM     11  C   UNL     1      -9.144  19.737  67.619  0.00  0.00    +0.026 C 
ATOM     12  C   UNL     1     -10.228  19.733  66.562  0.00  0.00    +0.006 C 
ATOM     13  C   UNL     1     -10.441  18.278  66.164  0.00  0.00    +0.022 C 
ATOM     14  C   UNL     1      -9.136  17.551  66.410  0.00  0.00    +0.093 C 
ATOM     15  N   UNL     1      -9.399  16.445  67.330  0.00  0.00    -0.278 N 
ATOM     16  C   UNL     1     -10.719  15.849  67.278  0.00  0.00    +0.115 C 
ATOM     17  C   UNL     1      -5.423  20.143  69.709  0.00  0.00    +0.036 C 
ATOM     18  O   UNL     1      -5.120  16.387  70.939  0.00  0.00    -0.273 OA
ATOM     19  C   UNL     1      -8.339  15.620  67.835  0.00  0.00    +0.226 C 
ATOM     20  O   UNL     1      -8.404  14.414  67.627  0.00  0.00    -0.275 OA
ATOM     21  C   UNL     1      -7.281  15.107  69.810  0.00  0.00    +0.053 C 
ENDROOT
BRANCH   7  22
ATOM     22  C   UNL     1      -4.679  19.514  67.381  0.00  0.00    +0.280 C 
ATOM     23  N   UNL     1      -3.637  20.501  67.313  0.00  0.00    -0.062 NA
ATOM     24  O   UNL     1      -4.673  18.768  66.353  0.00  0.00    -0.270 OA
BRANCH  23  25
ATOM     25  S   UNL     1      -2.902  21.001  65.852  0.00  0.00    +0.074 S 
ATOM     26  O   UNL     1      -2.032  22.200  66.159  0.00  0.00    -0.153 OA
ATOM     27  O   UNL     1      -1.949  19.964  65.299  0.00  0.00    -0.153 OA
BRANCH  25  28
ATOM     28  C   UNL     1      -4.110  21.481  64.635  0.00  0.00    +0.151 C 
ATOM     29  C   UNL     1      -3.426  21.930  63.314  0.00  0.00    +0.027 C 
ATOM     30  C   UNL     1      -4.225  20.643  63.373  0.00  0.00    +0.027 C 
ENDBRANCH  25  28
ENDBRANCH  23  25
ENDBRANCH   7  22
BRANCH   1  31
ATOM     31  O   UNL     1      -6.263  13.124  69.101  0.00  0.00    -0.479 OA
BRANCH  31  37
ATOM     32  C   UNL     1      -7.234   8.800  71.434  0.00  0.00    +0.136 A 
ATOM     33  C   UNL     1      -5.852   8.952  71.391  0.00  0.00    +0.030 A 
ATOM     34  C   UNL     1      -5.091   8.162  72.410  0.00  0.00    +0.036 C 
ATOM     35  C   UNL     1      -5.249  10.128  70.958  0.00  0.00    +0.083 A 
ATOM     36  C   UNL     1      -5.981  10.899  70.061  0.00  0.00    +0.052 A 
ATOM     37  C   UNL     1      -5.526  12.200  69.853  0.00  0.00    +0.141 A 
ATOM     38  C   UNL     1      -4.676  12.789  70.787  0.00  0.00    +0.058 A 
ATOM     39  C   UNL     1      -4.135  12.045  71.834  0.00  0.00    +0.108 A 
ATOM     40  C   UNL     1      -7.321  10.599  69.847  0.00  0.00    +0.008 A 
ATOM     41  N   UNL     1      -4.193  10.708  71.584  0.00  0.00    -0.243 NA
ATOM     42  C   UNL     1      -7.943   9.532  70.489  0.00  0.00    +0.037 A 
BRANCH  39  43
ATOM     43  C   UNL     1      -4.103  12.578  73.212  0.00  0.00    +0.128 A 
ATOM     44  S   UNL     1      -2.809  13.150  74.179  0.00  0.00    -0.065 S 
ATOM     45  C   UNL     1      -3.496  12.806  75.720  0.00  0.00    +0.052 A 
ATOM     46  C   UNL     1      -4.612  12.066  75.334  0.00  0.00    +0.066 A 
ATOM     47  N   UNL     1      -5.080  12.523  74.152  0.00  0.00    -0.241 NA
BRANCH  46  48
ATOM     48  C   UNL     1      -5.344  11.071  76.194  0.00  0.00    +0.041 C 
ATOM     49  C   UNL     1      -6.695  11.646  76.608  0.00  0.00    +0.006 C 
ATOM     50  C   UNL     1      -5.668   9.840  75.347  0.00  0.00    +0.006 C 
ENDBRANCH  46  48
ENDBRANCH  39  43
BRANCH  32  52
ATOM     51  C   UNL     1      -9.295   8.085  72.529  0.00  0.00    +0.252 C 
ATOM     52  O   UNL     1      -7.911   8.319  72.559  0.00  0.00    -0.472 OA
ENDBRANCH  32  52
ENDBRANCH  31  37
ENDBRANCH   1  31
TORSDOF 8
ENDMDL
