MODEL 1
REMARK VINA RESULT:      -4.0      0.000      0.000
REMARK  Name = 
REMARK  3 active torsions:
REMARK  status: ('A' for Active; 'I' for Inactive)
REMARK    1  A    between atoms: CG_2  and  CB_4
REMARK    2  A    between atoms: CB_4  and  CA_5
REMARK    3  A    between atoms: CA_5  and  C_7
REMARK                            x       y       z     vdW  Elec       q    Type
REMARK                         _______ _______ _______ _____ _____    ______ ____
ROOT
ATOM      1  CA  LEU A   1     -11.678  14.579  65.339  0.00  0.00    +0.194 C 
ATOM      2  N   LEU A   1     -12.498  14.717  63.999  0.00  0.00    -0.121 NA
ENDROOT
BRANCH   1   3
ATOM      3  C   LEU A   1     -10.902  15.969  65.097  0.00  0.00    +0.382 C 
ATOM      4  OXT LEU A   1      -9.590  16.062  65.437  0.00  0.00    -0.244 OA
ATOM      5  O   LEU A   1     -11.392  16.651  64.164  0.00  0.00    -0.244 OA
ENDBRANCH   1   3
BRANCH   1   6
ATOM      6  CB  LEU A   1     -10.512  13.682  64.598  0.00  0.00    +0.031 C 
BRANCH   6   8
ATOM      7  CD1 LEU A   1     -10.944  11.349  64.065  0.00  0.00    +0.000 C 
ATOM      8  CG  LEU A   1     -10.914  12.317  64.995  0.00  0.00    +0.002 C 
ATOM      9  CD2 LEU A   1     -11.492  12.110  66.325  0.00  0.00    +0.000 C 
ENDBRANCH   6   8
ENDBRANCH   1   6
TORSDOF 3
ENDMDL
MODEL 2
REMARK VINA RESULT:      -4.0      7.005      7.623
REMARK  Name = 
REMARK  3 active torsions:
REMARK  status: ('A' for Active; 'I' for Inactive)
REMARK    1  A    between atoms: CG_2  and  CB_4
REMARK    2  A    between atoms: CB_4  and  CA_5
REMARK    3  A    between atoms: CA_5  and  C_7
REMARK                            x       y       z     vdW  Elec       q    Type
REMARK                         _______ _______ _______ _____ _____    ______ ____
ROOT
ATOM      1  CA  LEU A   1     -13.540  14.776  72.622  0.00  0.00    +0.194 C 
ATOM      2  N   LEU A   1     -14.626  15.750  72.021  0.00  0.00    -0.121 NA
ENDROOT
BRANCH   1   3
ATOM      3  C   LEU A   1     -12.756  15.978  73.353  0.00  0.00    +0.382 C 
ATOM      4  OXT LEU A   1     -12.660  15.977  74.708  0.00  0.00    -0.244 OA
ATOM      5  O   LEU A   1     -11.877  16.505  72.629  0.00  0.00    -0.244 OA
ENDBRANCH   1   3
BRANCH   1   6
ATOM      6  CB  LEU A   1     -12.622  14.870  71.258  0.00  0.00    +0.031 C 
BRANCH   6   8
ATOM      7  CD1 LEU A   1     -11.925  13.101  69.742  0.00  0.00    +0.000 C 
ATOM      8  CG  LEU A   1     -12.481  13.439  70.917  0.00  0.00    +0.002 C 
ATOM      9  CD2 LEU A   1     -13.157  12.445  71.751  0.00  0.00    +0.000 C 
ENDBRANCH   6   8
ENDBRANCH   1   6
TORSDOF 3
ENDMDL
MODEL 3
REMARK VINA RESULT:      -4.0      1.547      1.738
REMARK  Name = 
REMARK  3 active torsions:
REMARK  status: ('A' for Active; 'I' for Inactive)
REMARK    1  A    between atoms: CG_2  and  CB_4
REMARK    2  A    between atoms: CB_4  and  CA_5
REMARK    3  A    between atoms: CA_5  and  C_7
REMARK                            x       y       z     vdW  Elec       q    Type
REMARK                         _______ _______ _______ _____ _____    ______ ____
ROOT
ATOM      1  CA  LEU A   1     -10.696  14.713  65.188  0.00  0.00    +0.194 C 
ATOM      2  N   LEU A   1     -11.406  14.719  66.596  0.00  0.00    -0.121 NA
ENDROOT
BRANCH   1   3
ATOM      3  C   LEU A   1     -11.023  16.270  64.932  0.00  0.00    +0.382 C 
ATOM      4  OXT LEU A   1     -10.220  17.213  65.490  0.00  0.00    -0.244 OA
ATOM      5  O   LEU A   1     -11.634  16.475  63.856  0.00  0.00    -0.244 OA
ENDBRANCH   1   3
BRANCH   1   6
ATOM      6  CB  LEU A   1     -12.068  14.197  64.437  0.00  0.00    +0.031 C 
BRANCH   6   8
ATOM      7  CD1 LEU A   1     -10.354  12.536  63.975  0.00  0.00    +0.000 C 
ATOM      8  CG  LEU A   1     -11.660  12.844  64.007  0.00  0.00    +0.002 C 
ATOM      9  CD2 LEU A   1     -12.663  11.961  63.407  0.00  0.00    +0.000 C 
ENDBRANCH   6   8
ENDBRANCH   1   6
TORSDOF 3
ENDMDL
MODEL 4
REMARK VINA RESULT:      -4.0      0.482      1.614
REMARK  Name = 
REMARK  3 active torsions:
REMARK  status: ('A' for Active; 'I' for Inactive)
REMARK    1  A    between atoms: CG_2  and  CB_4
REMARK    2  A    between atoms: CB_4  and  CA_5
REMARK    3  A    between atoms: CA_5  and  C_7
REMARK                            x       y       z     vdW  Elec       q    Type
REMARK                         _______ _______ _______ _____ _____    ______ ____
ROOT
ATOM      1  CA  LEU A   1     -11.749  14.428  65.178  0.00  0.00    +0.194 C 
ATOM      2  N   LEU A   1     -12.560  14.303  63.831  0.00  0.00    -0.121 NA
ENDROOT
BRANCH   1   3
ATOM      3  C   LEU A   1     -10.990  15.761  64.687  0.00  0.00    +0.382 C 
ATOM      4  OXT LEU A   1     -11.667  16.667  63.934  0.00  0.00    -0.244 OA
ATOM      5  O   LEU A   1     -10.051  16.102  65.446  0.00  0.00    -0.244 OA
ENDBRANCH   1   3
BRANCH   1   6
ATOM      6  CB  LEU A   1     -10.565  13.426  64.622  0.00  0.00    +0.031 C 
BRANCH   6   8
ATOM      7  CD1 LEU A   1     -11.524  12.226  66.507  0.00  0.00    +0.000 C 
ATOM      8  CG  LEU A   1     -10.917  12.167  65.311  0.00  0.00    +0.002 C 
ATOM      9  CD2 LEU A   1     -10.388  10.906  64.789  0.00  0.00    +0.000 C 
ENDBRANCH   6   8
ENDBRANCH   1   6
TORSDOF 3
ENDMDL
MODEL 5
REMARK VINA RESULT:      -4.0      6.981      7.616
REMARK  Name = 
REMARK  3 active torsions:
REMARK  status: ('A' for Active; 'I' for Inactive)
REMARK    1  A    between atoms: CG_2  and  CB_4
REMARK    2  A    between atoms: CB_4  and  CA_5
REMARK    3  A    between atoms: CA_5  and  C_7
REMARK                            x       y       z     vdW  Elec       q    Type
REMARK                         _______ _______ _______ _____ _____    ______ ____
ROOT
ATOM      1  CA  LEU A   1     -12.707  14.503  72.392  0.00  0.00    +0.194 C 
ATOM      2  N   LEU A   1     -13.949  13.539  72.518  0.00  0.00    -0.121 NA
ENDROOT
BRANCH   1   3
ATOM      3  C   LEU A   1     -13.425  15.666  73.243  0.00  0.00    +0.382 C 
ATOM      4  OXT LEU A   1     -12.698  16.363  74.154  0.00  0.00    -0.244 OA
ATOM      5  O   LEU A   1     -14.406  16.176  72.650  0.00  0.00    -0.244 OA
ENDBRANCH   1   3
BRANCH   1   6
ATOM      6  CB  LEU A   1     -13.240  15.090  70.948  0.00  0.00    +0.031 C 
BRANCH   6   8
ATOM      7  CD1 LEU A   1     -11.214  16.106  70.067  0.00  0.00    +0.000 C 
ATOM      8  CG  LEU A   1     -12.002  15.022  70.144  0.00  0.00    +0.002 C 
ATOM      9  CD2 LEU A   1     -11.791  13.866  69.269  0.00  0.00    +0.000 C 
ENDBRANCH   6   8
ENDBRANCH   1   6
TORSDOF 3
ENDMDL
MODEL 6
REMARK VINA RESULT:      -3.9      1.627      2.363
REMARK  Name = 
REMARK  3 active torsions:
REMARK  status: ('A' for Active; 'I' for Inactive)
REMARK    1  A    between atoms: CG_2  and  CB_4
REMARK    2  A    between atoms: CB_4  and  CA_5
REMARK    3  A    between atoms: CA_5  and  C_7
REMARK                            x       y       z     vdW  Elec       q    Type
REMARK                         _______ _______ _______ _____ _____    ______ ____
ROOT
ATOM      1  CA  LEU A   1     -10.852  14.580  65.483  0.00  0.00    +0.194 C 
ATOM      2  N   LEU A   1     -10.507  15.793  66.430  0.00  0.00    -0.121 NA
ENDROOT
BRANCH   1   3
ATOM      3  C   LEU A   1     -11.807  15.482  64.551  0.00  0.00    +0.382 C 
ATOM      4  OXT LEU A   1     -11.367  16.698  64.135  0.00  0.00    -0.244 OA
ATOM      5  O   LEU A   1     -12.615  14.803  63.871  0.00  0.00    -0.244 OA
ENDBRANCH   1   3
BRANCH   1   6
ATOM      6  CB  LEU A   1     -12.089  14.099  66.460  0.00  0.00    +0.031 C 
BRANCH   6   8
ATOM      7  CD1 LEU A   1     -11.684  12.223  67.953  0.00  0.00    +0.000 C 
ATOM      8  CG  LEU A   1     -11.728  12.685  66.693  0.00  0.00    +0.002 C 
ATOM      9  CD2 LEU A   1     -11.202  11.898  65.576  0.00  0.00    +0.000 C 
ENDBRANCH   6   8
ENDBRANCH   1   6
TORSDOF 3
ENDMDL
MODEL 7
REMARK VINA RESULT:      -3.9      3.208      5.287
REMARK  Name = 
REMARK  3 active torsions:
REMARK  status: ('A' for Active; 'I' for Inactive)
REMARK    1  A    between atoms: CG_2  and  CB_4
REMARK    2  A    between atoms: CB_4  and  CA_5
REMARK    3  A    between atoms: CA_5  and  C_7
REMARK                            x       y       z     vdW  Elec       q    Type
REMARK                         _______ _______ _______ _____ _____    ______ ____
ROOT
ATOM      1  CA  LEU A   1      -9.995  16.726  66.539  0.00  0.00    +0.194 C 
ATOM      2  N   LEU A   1      -8.601  16.811  65.806  0.00  0.00    -0.121 NA
ENDROOT
BRANCH   1   3
ATOM      3  C   LEU A   1     -10.716  16.071  65.256  0.00  0.00    +0.382 C 
ATOM      4  OXT LEU A   1     -11.245  16.886  64.307  0.00  0.00    -0.244 OA
ATOM      5  O   LEU A   1     -10.280  14.928  64.976  0.00  0.00    -0.244 OA
ENDBRANCH   1   3
BRANCH   1   6
ATOM      6  CB  LEU A   1     -10.383  18.265  66.097  0.00  0.00    +0.031 C 
BRANCH   6   8
ATOM      7  CD1 LEU A   1      -9.863  20.290  67.339  0.00  0.00    +0.000 C 
ATOM      8  CG  LEU A   1     -10.171  18.984  67.371  0.00  0.00    +0.002 C 
ATOM      9  CD2 LEU A   1     -10.069  18.209  68.609  0.00  0.00    +0.000 C 
ENDBRANCH   6   8
ENDBRANCH   1   6
TORSDOF 3
ENDMDL
MODEL 8
REMARK VINA RESULT:      -3.8      9.176     10.551
REMARK  Name = 
REMARK  3 active torsions:
REMARK  status: ('A' for Active; 'I' for Inactive)
REMARK    1  A    between atoms: CG_2  and  CB_4
REMARK    2  A    between atoms: CB_4  and  CA_5
REMARK    3  A    between atoms: CA_5  and  C_7
REMARK                            x       y       z     vdW  Elec       q    Type
REMARK                         _______ _______ _______ _____ _____    ______ ____
ROOT
ATOM      1  CA  LEU A   1      -4.576  19.520  70.638  0.00  0.00    +0.194 C 
ATOM      2  N   LEU A   1      -5.089  18.703  71.886  0.00  0.00    -0.121 NA
ENDROOT
BRANCH   1   3
ATOM      3  C   LEU A   1      -3.933  20.673  71.561  0.00  0.00    +0.382 C 
ATOM      4  OXT LEU A   1      -4.430  21.935  71.482  0.00  0.00    -0.244 OA
ATOM      5  O   LEU A   1      -3.418  20.231  72.616  0.00  0.00    -0.244 OA
ENDBRANCH   1   3
BRANCH   1   6
ATOM      6  CB  LEU A   1      -6.018  20.302  70.488  0.00  0.00    +0.031 C 
BRANCH   6   8
ATOM      7  CD1 LEU A   1      -6.928  18.969  68.669  0.00  0.00    +0.000 C 
ATOM      8  CG  LEU A   1      -6.301  20.093  69.053  0.00  0.00    +0.002 C 
ATOM      9  CD2 LEU A   1      -5.687  20.993  68.074  0.00  0.00    +0.000 C 
ENDBRANCH   6   8
ENDBRANCH   1   6
TORSDOF 3
ENDMDL
MODEL 9
REMARK VINA RESULT:      -3.8      6.346      7.046
REMARK  Name = 
REMARK  3 active torsions:
REMARK  status: ('A' for Active; 'I' for Inactive)
REMARK    1  A    between atoms: CG_2  and  CB_4
REMARK    2  A    between atoms: CB_4  and  CA_5
REMARK    3  A    between atoms: CA_5  and  C_7
REMARK                            x       y       z     vdW  Elec       q    Type
REMARK                         _______ _______ _______ _____ _____    ______ ____
ROOT
ATOM      1  CA  LEU A   1     -12.477  15.269  70.600  0.00  0.00    +0.194 C 
ATOM      2  N   LEU A   1     -11.947  13.826  70.246  0.00  0.00    -0.121 NA
ENDROOT
BRANCH   1   3
ATOM      3  C   LEU A   1     -11.280  15.988  69.799  0.00  0.00    +0.382 C 
ATOM      4  OXT LEU A   1     -10.029  15.463  69.870  0.00  0.00    -0.244 OA
ATOM      5  O   LEU A   1     -11.673  16.625  68.792  0.00  0.00    -0.244 OA
ENDBRANCH   1   3
BRANCH   1   6
ATOM      6  CB  LEU A   1     -11.662  15.277  72.031  0.00  0.00    +0.031 C 
BRANCH   6   8
ATOM      7  CD1 LEU A   1     -14.019  15.624  72.516  0.00  0.00    +0.000 C 
ATOM      8  CG  LEU A   1     -12.776  15.433  72.988  0.00  0.00    +0.002 C 
ATOM      9  CD2 LEU A   1     -12.468  15.613  74.408  0.00  0.00    +0.000 C 
ENDBRANCH   6   8
ENDBRANCH   1   6
TORSDOF 3
ENDMDL
