MODEL 1
REMARK VINA RESULT:      -5.7      0.000      0.000
REMARK  Name = 
REMARK  10 active torsions:
REMARK  status: ('A' for Active; 'I' for Inactive)
REMARK    1  A    between atoms: C_2  and  O_3
REMARK    2  A    between atoms: O_3  and  C_4
REMARK    3  A    between atoms: C_4  and  C_6
REMARK    4  A    between atoms: C_7  and  C_8
REMARK    5  A    between atoms: C_8  and  O_9
REMARK    6  A    between atoms: O_9  and  C_10
REMARK    7  A    between atoms: C_10  and  C_11
REMARK    8  A    between atoms: C_16  and  C_17
REMARK    9  A    between atoms: C_17  and  O_19
REMARK   10  A    between atoms: C_21  and  C_22
REMARK                            x       y       z     vdW  Elec       q    Type
REMARK                         _______ _______ _______ _____ _____    ______ ____
ROOT
ATOM      1  C   UNL     1     -11.207  14.017  68.875  0.00  0.00    +0.075 C 
ATOM      2  C   UNL     1     -10.833  14.443  67.328  0.00  0.00    +0.082 C 
ATOM      3  C   UNL     1      -9.955  15.721  67.855  0.00  0.00    +0.073 C 
ATOM      4  C   UNL     1     -10.839  16.695  68.077  0.00  0.00    +0.051 C 
ATOM      5  C   UNL     1     -10.333  18.085  67.977  0.00  0.00    +0.049 C 
ATOM      6  N   UNL     1     -11.903  16.318  68.963  0.00  0.00    -0.219 NA
ATOM      7  C   UNL     1     -11.864  14.990  69.504  0.00  0.00    +0.080 C 
ENDROOT
BRANCH   2   8
ATOM      8  C   UNL     1      -9.543  13.436  67.240  0.00  0.00    -0.003 A 
ATOM      9  C   UNL     1      -9.516  12.682  66.091  0.00  0.00    +0.054 A 
ATOM     10 CL   UNL     1     -10.294  13.195  64.626  0.00  0.00    -0.083 Cl
ATOM     11  C   UNL     1      -8.969  11.410  66.189  0.00  0.00    +0.011 A 
ATOM     12  C   UNL     1      -8.133  11.152  67.268  0.00  0.00    +0.001 A 
ATOM     13  C   UNL     1      -7.955  12.103  68.266  0.00  0.00    -0.000 A 
ATOM     14  C   UNL     1      -8.963  13.055  68.388  0.00  0.00    -0.003 A 
ENDBRANCH   2   8
BRANCH   1  15
ATOM     15  C   UNL     1     -11.674  12.649  68.982  0.00  0.00    +0.339 C 
ATOM     16  O   UNL     1     -12.408  12.268  68.021  0.00  0.00    -0.245 OA
BRANCH  15  17
ATOM     17  O   UNL     1     -12.053  12.233  70.238  0.00  0.00    -0.446 OA
BRANCH  17  19
ATOM     18  C   UNL     1     -10.868  10.126  70.159  0.00  0.00    +0.051 C 
ATOM     19  C   UNL     1     -12.060  10.901  70.680  0.00  0.00    +0.209 C 
ENDBRANCH  17  19
ENDBRANCH  15  17
ENDBRANCH   1  15
BRANCH   3  20
ATOM     20  C   UNL     1      -8.602  15.867  67.504  0.00  0.00    +0.339 C 
ATOM     21  O   UNL     1      -8.101  16.072  66.367  0.00  0.00    -0.245 OA
BRANCH  20  22
ATOM     22  O   UNL     1      -7.695  16.045  68.558  0.00  0.00    -0.442 OA
ATOM     23  C   UNL     1      -6.869  17.152  68.731  0.00  0.00    +0.256 C 
ENDBRANCH  20  22
ENDBRANCH   3  20
BRANCH   7  24
ATOM     24  C   UNL     1     -12.353  14.689  70.882  0.00  0.00    +0.185 C 
BRANCH  24  25
ATOM     25  O   UNL     1     -13.169  15.749  71.322  0.00  0.00    -0.346 OA
BRANCH  25  26
ATOM     26  C   UNL     1     -13.606  15.519  72.622  0.00  0.00    +0.163 C 
BRANCH  26  27
ATOM     27  C   UNL     1     -12.497  15.238  73.587  0.00  0.00    +0.141 C 
ATOM     28  N   UNL     1     -12.525  16.159  74.697  0.00  0.00    -0.129 NA
ENDBRANCH  26  27
ENDBRANCH  25  26
ENDBRANCH  24  25
ENDBRANCH   7  24
TORSDOF 10
ENDMDL
MODEL 2
REMARK VINA RESULT:      -5.7      4.319      7.491
REMARK  Name = 
REMARK  10 active torsions:
REMARK  status: ('A' for Active; 'I' for Inactive)
REMARK    1  A    between atoms: C_2  and  O_3
REMARK    2  A    between atoms: O_3  and  C_4
REMARK    3  A    between atoms: C_4  and  C_6
REMARK    4  A    between atoms: C_7  and  C_8
REMARK    5  A    between atoms: C_8  and  O_9
REMARK    6  A    between atoms: O_9  and  C_10
REMARK    7  A    between atoms: C_10  and  C_11
REMARK    8  A    between atoms: C_16  and  C_17
REMARK    9  A    between atoms: C_17  and  O_19
REMARK   10  A    between atoms: C_21  and  C_22
REMARK                            x       y       z     vdW  Elec       q    Type
REMARK                         _______ _______ _______ _____ _____    ______ ____
ROOT
ATOM      1  C   UNL     1     -10.566   9.536  69.110  0.00  0.00    +0.075 C 
ATOM      2  C   UNL     1     -10.304   9.422  70.733  0.00  0.00    +0.082 C 
ATOM      3  C   UNL     1     -11.894   9.656  71.041  0.00  0.00    +0.073 C 
ATOM      4  C   UNL     1     -12.076  10.977  71.005  0.00  0.00    +0.051 C 
ATOM      5  C   UNL     1     -13.204  11.514  71.802  0.00  0.00    +0.049 C 
ATOM      6  N   UNL     1     -11.626  11.588  69.786  0.00  0.00    -0.219 NA
ATOM      7  C   UNL     1     -11.083  10.719  68.781  0.00  0.00    +0.080 C 
ENDROOT
BRANCH   2   8
ATOM      8  C   UNL     1     -10.414   7.787  70.752  0.00  0.00    -0.003 A 
ATOM      9  C   UNL     1      -9.393   7.178  71.443  0.00  0.00    +0.054 A 
ATOM     10 CL   UNL     1      -8.519   7.985  72.707  0.00  0.00    -0.083 Cl
ATOM     11  C   UNL     1      -8.981   5.935  70.984  0.00  0.00    +0.011 A 
ATOM     12  C   UNL     1      -9.859   5.224  70.176  0.00  0.00    +0.001 A 
ATOM     13  C   UNL     1     -11.053   5.800  69.755  0.00  0.00    -0.000 A 
ATOM     14  C   UNL     1     -11.095   7.191  69.761  0.00  0.00    -0.003 A 
ENDBRANCH   2   8
BRANCH   1  15
ATOM     15  C   UNL     1      -9.478   8.985  68.327  0.00  0.00    +0.339 C 
ATOM     16  O   UNL     1      -8.385   9.620  68.426  0.00  0.00    -0.245 OA
BRANCH  15  17
ATOM     17  O   UNL     1      -9.804   8.529  67.070  0.00  0.00    -0.446 OA
BRANCH  17  19
ATOM     18  C   UNL     1      -9.134   6.261  66.567  0.00  0.00    +0.051 C 
ATOM     19  C   UNL     1      -8.979   7.735  66.259  0.00  0.00    +0.209 C 
ENDBRANCH  17  19
ENDBRANCH  15  17
ENDBRANCH   1  15
BRANCH   3  20
ATOM     20  C   UNL     1     -12.637   8.718  71.780  0.00  0.00    +0.339 C 
ATOM     21  O   UNL     1     -12.450   8.319  72.960  0.00  0.00    -0.245 OA
BRANCH  20  22
ATOM     22  O   UNL     1     -13.878   8.340  71.248  0.00  0.00    -0.442 OA
ATOM     23  C   UNL     1     -14.707   7.348  71.766  0.00  0.00    +0.256 C 
ENDBRANCH  20  22
ENDBRANCH   3  20
BRANCH   7  24
ATOM     24  C   UNL     1     -11.270  10.989  67.326  0.00  0.00    +0.185 C 
BRANCH  24  25
ATOM     25  O   UNL     1     -12.117  12.103  67.170  0.00  0.00    -0.346 OA
BRANCH  25  26
ATOM     26  C   UNL     1     -11.559  13.018  66.283  0.00  0.00    +0.163 C 
BRANCH  26  27
ATOM     27  C   UNL     1     -12.531  13.541  65.271  0.00  0.00    +0.141 C 
ATOM     28  N   UNL     1     -13.123  12.466  64.513  0.00  0.00    -0.129 NA
ENDBRANCH  26  27
ENDBRANCH  25  26
ENDBRANCH  24  25
ENDBRANCH   7  24
TORSDOF 10
ENDMDL
MODEL 3
REMARK VINA RESULT:      -5.2      2.189      4.644
REMARK  Name = 
REMARK  10 active torsions:
REMARK  status: ('A' for Active; 'I' for Inactive)
REMARK    1  A    between atoms: C_2  and  O_3
REMARK    2  A    between atoms: O_3  and  C_4
REMARK    3  A    between atoms: C_4  and  C_6
REMARK    4  A    between atoms: C_7  and  C_8
REMARK    5  A    between atoms: C_8  and  O_9
REMARK    6  A    between atoms: O_9  and  C_10
REMARK    7  A    between atoms: C_10  and  C_11
REMARK    8  A    between atoms: C_16  and  C_17
REMARK    9  A    between atoms: C_17  and  O_19
REMARK   10  A    between atoms: C_21  and  C_22
REMARK                            x       y       z     vdW  Elec       q    Type
REMARK                         _______ _______ _______ _____ _____    ______ ____
ROOT
ATOM      1  C   UNL     1     -11.169  14.705  69.288  0.00  0.00    +0.075 C 
ATOM      2  C   UNL     1     -10.002  13.610  68.895  0.00  0.00    +0.082 C 
ATOM      3  C   UNL     1     -11.116  12.605  68.240  0.00  0.00    +0.073 C 
ATOM      4  C   UNL     1     -11.631  11.924  69.265  0.00  0.00    +0.051 C 
ATOM      5  C   UNL     1     -12.187  10.585  68.959  0.00  0.00    +0.049 C 
ATOM      6  N   UNL     1     -12.148  12.760  70.311  0.00  0.00    -0.219 NA
ATOM      7  C   UNL     1     -12.075  14.178  70.111  0.00  0.00    +0.080 C 
ENDROOT
BRANCH   2   8
ATOM      8  C   UNL     1      -9.638  14.335  67.471  0.00  0.00    -0.003 A 
ATOM      9  C   UNL     1      -8.317  14.700  67.366  0.00  0.00    +0.054 A 
ATOM     10 CL   UNL     1      -7.059  13.900  68.256  0.00  0.00    -0.083 Cl
ATOM     11  C   UNL     1      -8.040  15.844  66.630  0.00  0.00    +0.011 A 
ATOM     12  C   UNL     1      -9.006  16.280  65.732  0.00  0.00    +0.001 A 
ATOM     13  C   UNL     1     -10.246  15.653  65.670  0.00  0.00    -0.000 A 
ATOM     14  C   UNL     1     -10.630  14.947  66.806  0.00  0.00    -0.003 A 
ENDBRANCH   2   8
BRANCH   1  15
ATOM     15  C   UNL     1     -10.632  16.024  69.559  0.00  0.00    +0.339 C 
ATOM     16  O   UNL     1     -10.602  16.336  70.787  0.00  0.00    -0.245 OA
BRANCH  15  17
ATOM     17  O   UNL     1     -11.003  17.021  68.687  0.00  0.00    -0.446 OA
BRANCH  17  19
ATOM     18  C   UNL     1     -10.796  18.959  67.254  0.00  0.00    +0.051 C 
ATOM     19  C   UNL     1     -10.294  18.213  68.472  0.00  0.00    +0.209 C 
ENDBRANCH  17  19
ENDBRANCH  15  17
ENDBRANCH   1  15
BRANCH   3  20
ATOM     20  C   UNL     1     -11.013  12.178  66.905  0.00  0.00    +0.339 C 
ATOM     21  O   UNL     1     -10.102  11.496  66.364  0.00  0.00    -0.245 OA
BRANCH  20  22
ATOM     22  O   UNL     1     -12.161  12.312  66.112  0.00  0.00    -0.442 OA
ATOM     23  C   UNL     1     -12.175  12.401  64.722  0.00  0.00    +0.256 C 
ENDBRANCH  20  22
ENDBRANCH   3  20
BRANCH   7  24
ATOM     24  C   UNL     1     -13.130  15.100  70.626  0.00  0.00    +0.185 C 
BRANCH  24  25
ATOM     25  O   UNL     1     -13.879  14.434  71.615  0.00  0.00    -0.346 OA
BRANCH  25  26
ATOM     26  C   UNL     1     -13.281  14.584  72.861  0.00  0.00    +0.163 C 
BRANCH  26  27
ATOM     27  C   UNL     1     -13.174  16.008  73.308  0.00  0.00    +0.141 C 
ATOM     28  N   UNL     1     -12.538  16.104  74.600  0.00  0.00    -0.129 NA
ENDBRANCH  26  27
ENDBRANCH  25  26
ENDBRANCH  24  25
ENDBRANCH   7  24
TORSDOF 10
ENDMDL
MODEL 4
REMARK VINA RESULT:      -5.2      3.400      5.294
REMARK  Name = 
REMARK  10 active torsions:
REMARK  status: ('A' for Active; 'I' for Inactive)
REMARK    1  A    between atoms: C_2  and  O_3
REMARK    2  A    between atoms: O_3  and  C_4
REMARK    3  A    between atoms: C_4  and  C_6
REMARK    4  A    between atoms: C_7  and  C_8
REMARK    5  A    between atoms: C_8  and  O_9
REMARK    6  A    between atoms: O_9  and  C_10
REMARK    7  A    between atoms: C_10  and  C_11
REMARK    8  A    between atoms: C_16  and  C_17
REMARK    9  A    between atoms: C_17  and  O_19
REMARK   10  A    between atoms: C_21  and  C_22
REMARK                            x       y       z     vdW  Elec       q    Type
REMARK                         _______ _______ _______ _____ _____    ______ ____
ROOT
ATOM      1  C   UNL     1      -9.041  14.634  67.067  0.00  0.00    +0.075 C 
ATOM      2  C   UNL     1     -10.474  13.876  67.361  0.00  0.00    +0.082 C 
ATOM      3  C   UNL     1     -10.820  13.834  65.762  0.00  0.00    +0.073 C 
ATOM      4  C   UNL     1     -11.332  15.032  65.474  0.00  0.00    +0.051 C 
ATOM      5  C   UNL     1     -12.258  15.098  64.318  0.00  0.00    +0.049 C 
ATOM      6  N   UNL     1     -10.486  16.127  65.855  0.00  0.00    -0.219 NA
ATOM      7  C   UNL     1      -9.223  15.801  66.451  0.00  0.00    +0.080 C 
ENDROOT
BRANCH   2   8
ATOM      8  C   UNL     1      -9.811  12.378  67.383  0.00  0.00    -0.003 A 
ATOM      9  C   UNL     1     -10.237  11.607  68.438  0.00  0.00    +0.054 A 
ATOM     10 CL   UNL     1     -11.762  11.871  69.224  0.00  0.00    -0.083 Cl
ATOM     11  C   UNL     1      -9.325  10.698  68.957  0.00  0.00    +0.011 A 
ATOM     12  C   UNL     1      -8.254  10.331  68.153  0.00  0.00    +0.001 A 
ATOM     13  C   UNL     1      -8.051  10.948  66.924  0.00  0.00    -0.000 A 
ATOM     14  C   UNL     1      -8.630  12.204  66.769  0.00  0.00    -0.003 A 
ENDBRANCH   2   8
BRANCH   1  15
ATOM     15  C   UNL     1      -8.121  14.546  68.184  0.00  0.00    +0.339 C 
ATOM     16  O   UNL     1      -8.466  15.218  69.202  0.00  0.00    -0.245 OA
BRANCH  15  17
ATOM     17  O   UNL     1      -6.781  14.563  67.870  0.00  0.00    -0.446 OA
BRANCH  17  19
ATOM     18  C   UNL     1      -5.855  12.881  69.340  0.00  0.00    +0.051 C 
ATOM     19  C   UNL     1      -5.738  14.276  68.764  0.00  0.00    +0.209 C 
ENDBRANCH  17  19
ENDBRANCH  15  17
ENDBRANCH   1  15
BRANCH   3  20
ATOM     20  C   UNL     1     -11.088  12.619  65.108  0.00  0.00    +0.339 C 
ATOM     21  O   UNL     1     -12.026  11.804  65.314  0.00  0.00    -0.245 OA
BRANCH  20  22
ATOM     22  O   UNL     1     -10.379  12.373  63.924  0.00  0.00    -0.442 OA
ATOM     23  C   UNL     1     -10.024  11.114  63.445  0.00  0.00    +0.256 C 
ENDBRANCH  20  22
ENDBRANCH   3  20
BRANCH   7  24
ATOM     24  C   UNL     1      -8.007  16.635  66.221  0.00  0.00    +0.185 C 
BRANCH  24  25
ATOM     25  O   UNL     1      -8.403  17.916  65.788  0.00  0.00    -0.346 OA
BRANCH  25  26
ATOM     26  C   UNL     1      -8.586  18.762  66.876  0.00  0.00    +0.163 C 
BRANCH  26  27
ATOM     27  C   UNL     1      -9.754  19.686  66.727  0.00  0.00    +0.141 C 
ATOM     28  N   UNL     1     -10.885  19.226  67.494  0.00  0.00    -0.129 NA
ENDBRANCH  26  27
ENDBRANCH  25  26
ENDBRANCH  24  25
ENDBRANCH   7  24
TORSDOF 10
ENDMDL
MODEL 5
REMARK VINA RESULT:      -5.1      3.163      6.950
REMARK  Name = 
REMARK  10 active torsions:
REMARK  status: ('A' for Active; 'I' for Inactive)
REMARK    1  A    between atoms: C_2  and  O_3
REMARK    2  A    between atoms: O_3  and  C_4
REMARK    3  A    between atoms: C_4  and  C_6
REMARK    4  A    between atoms: C_7  and  C_8
REMARK    5  A    between atoms: C_8  and  O_9
REMARK    6  A    between atoms: O_9  and  C_10
REMARK    7  A    between atoms: C_10  and  C_11
REMARK    8  A    between atoms: C_16  and  C_17
REMARK    9  A    between atoms: C_17  and  O_19
REMARK   10  A    between atoms: C_21  and  C_22
REMARK                            x       y       z     vdW  Elec       q    Type
REMARK                         _______ _______ _______ _____ _____    ______ ____
ROOT
ATOM      1  C   UNL     1      -7.164  16.654  67.338  0.00  0.00    +0.075 C 
ATOM      2  C   UNL     1      -8.541  16.221  66.542  0.00  0.00    +0.082 C 
ATOM      3  C   UNL     1      -8.955  15.193  67.747  0.00  0.00    +0.073 C 
ATOM      4  C   UNL     1      -8.276  14.069  67.507  0.00  0.00    +0.051 C 
ATOM      5  C   UNL     1      -8.865  12.814  68.032  0.00  0.00    +0.049 C 
ATOM      6  N   UNL     1      -6.861  14.268  67.376  0.00  0.00    -0.219 NA
ATOM      7  C   UNL     1      -6.369  15.605  67.544  0.00  0.00    +0.080 C 
ENDROOT
BRANCH   2   8
ATOM      8  C   UNL     1      -9.417  17.470  67.140  0.00  0.00    -0.003 A 
ATOM      9  C   UNL     1     -10.303  18.000  66.233  0.00  0.00    +0.054 A 
ATOM     10 CL   UNL     1     -10.938  17.077  64.907  0.00  0.00    -0.083 Cl
ATOM     11  C   UNL     1     -10.555  19.362  66.327  0.00  0.00    +0.011 A 
ATOM     12  C   UNL     1     -10.259  19.989  67.530  0.00  0.00    +0.001 A 
ATOM     13  C   UNL     1      -9.624  19.291  68.551  0.00  0.00    -0.000 A 
ATOM     14  C   UNL     1      -8.901  18.167  68.164  0.00  0.00    -0.003 A 
ENDBRANCH   2   8
BRANCH   1  15
ATOM     15  C   UNL     1      -6.602  17.897  66.848  0.00  0.00    +0.339 C 
ATOM     16  O   UNL     1      -6.199  17.853  65.647  0.00  0.00    -0.245 OA
BRANCH  15  17
ATOM     17  O   UNL     1      -5.807  18.593  67.730  0.00  0.00    -0.446 OA
BRANCH  17  19
ATOM     18  C   UNL     1      -6.440  20.914  67.476  0.00  0.00    +0.051 C 
ATOM     19  C   UNL     1      -5.321  19.894  67.527  0.00  0.00    +0.209 C 
ENDBRANCH  17  19
ENDBRANCH  15  17
ENDBRANCH   1  15
BRANCH   3  20
ATOM     20  C   UNL     1     -10.186  15.314  68.414  0.00  0.00    +0.339 C 
ATOM     21  O   UNL     1     -11.344  15.070  67.981  0.00  0.00    -0.245 OA
BRANCH  20  22
ATOM     22  O   UNL     1     -10.133  15.501  69.802  0.00  0.00    -0.442 OA
ATOM     23  C   UNL     1     -11.203  15.890  70.604  0.00  0.00    +0.256 C 
ENDBRANCH  20  22
ENDBRANCH   3  20
BRANCH   7  24
ATOM     24  C   UNL     1      -5.041  15.881  68.165  0.00  0.00    +0.185 C 
BRANCH  24  25
ATOM     25  O   UNL     1      -4.950  15.185  69.385  0.00  0.00    -0.346 OA
BRANCH  25  26
ATOM     26  C   UNL     1      -4.409  16.002  70.372  0.00  0.00    +0.163 C 
BRANCH  26  27
ATOM     27  C   UNL     1      -5.313  17.122  70.786  0.00  0.00    +0.141 C 
ATOM     28  N   UNL     1      -4.570  18.341  70.995  0.00  0.00    -0.129 NA
ENDBRANCH  26  27
ENDBRANCH  25  26
ENDBRANCH  24  25
ENDBRANCH   7  24
TORSDOF 10
ENDMDL
MODEL 6
REMARK VINA RESULT:      -5.1      3.819      6.316
REMARK  Name = 
REMARK  10 active torsions:
REMARK  status: ('A' for Active; 'I' for Inactive)
REMARK    1  A    between atoms: C_2  and  O_3
REMARK    2  A    between atoms: O_3  and  C_4
REMARK    3  A    between atoms: C_4  and  C_6
REMARK    4  A    between atoms: C_7  and  C_8
REMARK    5  A    between atoms: C_8  and  O_9
REMARK    6  A    between atoms: O_9  and  C_10
REMARK    7  A    between atoms: C_10  and  C_11
REMARK    8  A    between atoms: C_16  and  C_17
REMARK    9  A    between atoms: C_17  and  O_19
REMARK   10  A    between atoms: C_21  and  C_22
REMARK                            x       y       z     vdW  Elec       q    Type
REMARK                         _______ _______ _______ _____ _____    ______ ____
ROOT
ATOM      1  C   UNL     1     -10.345  10.913  67.157  0.00  0.00    +0.075 C 
ATOM      2  C   UNL     1     -10.372   9.273  66.990  0.00  0.00    +0.082 C 
ATOM      3  C   UNL     1      -9.055   9.315  66.020  0.00  0.00    +0.073 C 
ATOM      4  C   UNL     1      -9.516   9.605  64.801  0.00  0.00    +0.051 C 
ATOM      5  C   UNL     1      -8.702   9.137  63.655  0.00  0.00    +0.049 C 
ATOM      6  N   UNL     1     -10.309  10.801  64.754  0.00  0.00    -0.219 NA
ATOM      7  C   UNL     1     -10.473  11.525  65.981  0.00  0.00    +0.080 C 
ENDROOT
BRANCH   2   8
ATOM      8  C   UNL     1      -9.510   9.004  68.357  0.00  0.00    -0.003 A 
ATOM      9  C   UNL     1     -10.013   7.983  69.128  0.00  0.00    +0.054 A 
ATOM     10 CL   UNL     1     -10.964   6.695  68.457  0.00  0.00    -0.083 Cl
ATOM     11  C   UNL     1      -9.860   8.103  70.502  0.00  0.00    +0.011 A 
ATOM     12  C   UNL     1      -8.882   8.973  70.967  0.00  0.00    +0.001 A 
ATOM     13  C   UNL     1      -8.173   9.775  70.080  0.00  0.00    -0.000 A 
ATOM     14  C   UNL     1      -8.785  10.018  68.854  0.00  0.00    -0.003 A 
ENDBRANCH   2   8
BRANCH   1  15
ATOM     15  C   UNL     1     -11.115  11.373  68.295  0.00  0.00    +0.339 C 
ATOM     16  O   UNL     1     -12.354  11.111  68.231  0.00  0.00    -0.245 OA
BRANCH  15  17
ATOM     17  O   UNL     1     -10.781  12.611  68.795  0.00  0.00    -0.446 OA
BRANCH  17  19
ATOM     18  C   UNL     1     -11.818  14.793  68.904  0.00  0.00    +0.051 C 
ATOM     19  C   UNL     1     -11.631  13.435  69.548  0.00  0.00    +0.209 C 
ENDBRANCH  17  19
ENDBRANCH  15  17
ENDBRANCH   1  15
BRANCH   3  20
ATOM     20  C   UNL     1      -7.896   8.585  66.336  0.00  0.00    +0.339 C 
ATOM     21  O   UNL     1      -7.758   7.338  66.451  0.00  0.00    -0.245 OA
BRANCH  20  22
ATOM     22  O   UNL     1      -6.682   9.284  66.293  0.00  0.00    -0.442 OA
ATOM     23  C   UNL     1      -5.647   9.159  67.217  0.00  0.00    +0.256 C 
ENDBRANCH  20  22
ENDBRANCH   3  20
BRANCH   7  24
ATOM     24  C   UNL     1     -10.567  13.015  66.007  0.00  0.00    +0.185 C 
BRANCH  24  25
ATOM     25  O   UNL     1     -11.870  13.399  65.637  0.00  0.00    -0.346 OA
BRANCH  25  26
ATOM     26  C   UNL     1     -11.826  14.396  64.668  0.00  0.00    +0.163 C 
BRANCH  26  27
ATOM     27  C   UNL     1     -10.922  15.536  65.020  0.00  0.00    +0.141 C 
ATOM     28  N   UNL     1     -11.305  16.740  64.325  0.00  0.00    -0.129 NA
ENDBRANCH  26  27
ENDBRANCH  25  26
ENDBRANCH  24  25
ENDBRANCH   7  24
TORSDOF 10
ENDMDL
MODEL 7
REMARK VINA RESULT:      -5.1      4.258      6.982
REMARK  Name = 
REMARK  10 active torsions:
REMARK  status: ('A' for Active; 'I' for Inactive)
REMARK    1  A    between atoms: C_2  and  O_3
REMARK    2  A    between atoms: O_3  and  C_4
REMARK    3  A    between atoms: C_4  and  C_6
REMARK    4  A    between atoms: C_7  and  C_8
REMARK    5  A    between atoms: C_8  and  O_9
REMARK    6  A    between atoms: O_9  and  C_10
REMARK    7  A    between atoms: C_10  and  C_11
REMARK    8  A    between atoms: C_16  and  C_17
REMARK    9  A    between atoms: C_17  and  O_19
REMARK   10  A    between atoms: C_21  and  C_22
REMARK                            x       y       z     vdW  Elec       q    Type
REMARK                         _______ _______ _______ _____ _____    ______ ____
ROOT
ATOM      1  C   UNL     1      -7.798  16.665  67.312  0.00  0.00    +0.075 C 
ATOM      2  C   UNL     1      -6.635  17.032  68.421  0.00  0.00    +0.082 C 
ATOM      3  C   UNL     1      -5.523  16.159  67.596  0.00  0.00    +0.073 C 
ATOM      4  C   UNL     1      -5.708  14.893  67.976  0.00  0.00    +0.051 C 
ATOM      5  C   UNL     1      -4.532  13.995  67.885  0.00  0.00    +0.049 C 
ATOM      6  N   UNL     1      -7.055  14.430  67.801  0.00  0.00    -0.219 NA
ATOM      7  C   UNL     1      -7.995  15.350  67.229  0.00  0.00    +0.080 C 
ENDROOT
BRANCH   2   8
ATOM      8  C   UNL     1      -6.236  18.450  67.703  0.00  0.00    -0.003 A 
ATOM      9  C   UNL     1      -6.110  19.494  68.589  0.00  0.00    +0.054 A 
ATOM     10 CL   UNL     1      -5.717  19.250  70.262  0.00  0.00    -0.083 Cl
ATOM     11  C   UNL     1      -6.462  20.754  68.125  0.00  0.00    +0.011 A 
ATOM     12  C   UNL     1      -6.500  20.946  66.750  0.00  0.00    +0.001 A 
ATOM     13  C   UNL     1      -6.306  19.876  65.883  0.00  0.00    -0.000 A 
ATOM     14  C   UNL     1      -6.553  18.612  66.409  0.00  0.00    -0.003 A 
ENDBRANCH   2   8
BRANCH   1  15
ATOM     15  C   UNL     1      -8.937  17.559  67.377  0.00  0.00    +0.339 C 
ATOM     16  O   UNL     1      -9.694  17.373  68.377  0.00  0.00    -0.245 OA
BRANCH  15  17
ATOM     17  O   UNL     1      -9.563  17.833  66.183  0.00  0.00    -0.446 OA
BRANCH  17  19
ATOM     18  C   UNL     1     -10.071  20.135  66.723  0.00  0.00    +0.051 C 
ATOM     19  C   UNL     1     -10.467  18.884  65.966  0.00  0.00    +0.209 C 
ENDBRANCH  17  19
ENDBRANCH  15  17
ENDBRANCH   1  15
BRANCH   3  20
ATOM     20  C   UNL     1      -4.326  16.744  67.150  0.00  0.00    +0.339 C 
ATOM     21  O   UNL     1      -3.368  17.196  67.831  0.00  0.00    -0.245 OA
BRANCH  20  22
ATOM     22  O   UNL     1      -4.031  16.608  65.786  0.00  0.00    -0.442 OA
ATOM     23  C   UNL     1      -3.290  17.513  65.028  0.00  0.00    +0.256 C 
ENDBRANCH  20  22
ENDBRANCH   3  20
BRANCH   7  24
ATOM     24  C   UNL     1      -9.097  14.892  66.333  0.00  0.00    +0.185 C 
BRANCH  24  25
ATOM     25  O   UNL     1     -10.054  14.198  67.099  0.00  0.00    -0.346 OA
BRANCH  25  26
ATOM     26  C   UNL     1     -11.339  14.594  66.747  0.00  0.00    +0.163 C 
BRANCH  26  27
ATOM     27  C   UNL     1     -12.158  13.498  66.137  0.00  0.00    +0.141 C 
ATOM     28  N   UNL     1     -12.963  13.993  65.047  0.00  0.00    -0.129 NA
ENDBRANCH  26  27
ENDBRANCH  25  26
ENDBRANCH  24  25
ENDBRANCH   7  24
TORSDOF 10
ENDMDL
MODEL 8
REMARK VINA RESULT:      -5.1      4.097      7.248
REMARK  Name = 
REMARK  10 active torsions:
REMARK  status: ('A' for Active; 'I' for Inactive)
REMARK    1  A    between atoms: C_2  and  O_3
REMARK    2  A    between atoms: O_3  and  C_4
REMARK    3  A    between atoms: C_4  and  C_6
REMARK    4  A    between atoms: C_7  and  C_8
REMARK    5  A    between atoms: C_8  and  O_9
REMARK    6  A    between atoms: O_9  and  C_10
REMARK    7  A    between atoms: C_10  and  C_11
REMARK    8  A    between atoms: C_16  and  C_17
REMARK    9  A    between atoms: C_17  and  O_19
REMARK   10  A    between atoms: C_21  and  C_22
REMARK                            x       y       z     vdW  Elec       q    Type
REMARK                         _______ _______ _______ _____ _____    ______ ____
ROOT
ATOM      1  C   UNL     1     -10.587  11.700  65.721  0.00  0.00    +0.075 C 
ATOM      2  C   UNL     1     -10.933  10.853  67.091  0.00  0.00    +0.082 C 
ATOM      3  C   UNL     1      -9.397  10.294  67.175  0.00  0.00    +0.073 C 
ATOM      4  C   UNL     1      -9.352   9.246  66.350  0.00  0.00    +0.051 C 
ATOM      5  C   UNL     1      -8.335   8.209  66.649  0.00  0.00    +0.049 C 
ATOM      6  N   UNL     1      -9.788   9.544  65.015  0.00  0.00    -0.219 NA
ATOM      7  C   UNL     1     -10.177  10.897  64.741  0.00  0.00    +0.080 C 
ENDROOT
BRANCH   2   8
ATOM      8  C   UNL     1     -10.655  12.125  68.086  0.00  0.00    -0.003 A 
ATOM      9  C   UNL     1     -11.557  12.217  69.120  0.00  0.00    +0.054 A 
ATOM     10 CL   UNL     1     -12.418  10.837  69.727  0.00  0.00    -0.083 Cl
ATOM     11  C   UNL     1     -11.872  13.494  69.563  0.00  0.00    +0.011 A 
ATOM     12  C   UNL     1     -10.986  14.518  69.256  0.00  0.00    +0.001 A 
ATOM     13  C   UNL     1      -9.890  14.280  68.434  0.00  0.00    -0.000 A 
ATOM     14  C   UNL     1      -9.989  13.178  67.590  0.00  0.00    -0.003 A 
ENDBRANCH   2   8
BRANCH   1  15
ATOM     15  C   UNL     1     -11.563  12.735  65.441  0.00  0.00    +0.339 C 
ATOM     16  O   UNL     1     -12.713  12.302  65.132  0.00  0.00    -0.245 OA
BRANCH  15  17
ATOM     17  O   UNL     1     -11.110  13.819  64.725  0.00  0.00    -0.446 OA
BRANCH  17  19
ATOM     18  C   UNL     1     -10.595  16.117  65.281  0.00  0.00    +0.051 C 
ATOM     19  C   UNL     1     -11.633  15.119  64.809  0.00  0.00    +0.209 C 
ENDBRANCH  17  19
ENDBRANCH  15  17
ENDBRANCH   1  15
BRANCH   3  20
ATOM     20  C   UNL     1      -8.607  10.508  68.318  0.00  0.00    +0.339 C 
ATOM     21  O   UNL     1      -8.751  10.031  69.475  0.00  0.00    -0.245 OA
BRANCH  20  22
ATOM     22  O   UNL     1      -7.370  11.135  68.118  0.00  0.00    -0.442 OA
ATOM     23  C   UNL     1      -6.717  11.944  69.045  0.00  0.00    +0.256 C 
ENDBRANCH  20  22
ENDBRANCH   3  20
BRANCH   7  24
ATOM     24  C   UNL     1      -9.930  11.530  63.412  0.00  0.00    +0.185 C 
BRANCH  24  25
ATOM     25  O   UNL     1      -9.555  10.534  62.490  0.00  0.00    -0.346 OA
BRANCH  25  26
ATOM     26  C   UNL     1      -8.297  10.807  61.964  0.00  0.00    +0.163 C 
BRANCH  26  27
ATOM     27  C   UNL     1      -7.264   9.784  62.318  0.00  0.00    +0.141 C 
ATOM     28  N   UNL     1      -6.584  10.131  63.542  0.00  0.00    -0.129 NA
ENDBRANCH  26  27
ENDBRANCH  25  26
ENDBRANCH  24  25
ENDBRANCH   7  24
TORSDOF 10
ENDMDL
MODEL 9
REMARK VINA RESULT:      -5.1      2.216      3.312
REMARK  Name = 
REMARK  10 active torsions:
REMARK  status: ('A' for Active; 'I' for Inactive)
REMARK    1  A    between atoms: C_2  and  O_3
REMARK    2  A    between atoms: O_3  and  C_4
REMARK    3  A    between atoms: C_4  and  C_6
REMARK    4  A    between atoms: C_7  and  C_8
REMARK    5  A    between atoms: C_8  and  O_9
REMARK    6  A    between atoms: O_9  and  C_10
REMARK    7  A    between atoms: C_10  and  C_11
REMARK    8  A    between atoms: C_16  and  C_17
REMARK    9  A    between atoms: C_17  and  O_19
REMARK   10  A    between atoms: C_21  and  C_22
REMARK                            x       y       z     vdW  Elec       q    Type
REMARK                         _______ _______ _______ _____ _____    ______ ____
ROOT
ATOM      1  C   UNL     1     -10.595  13.310  67.402  0.00  0.00    +0.075 C 
ATOM      2  C   UNL     1      -9.430  12.957  66.292  0.00  0.00    +0.082 C 
ATOM      3  C   UNL     1      -8.276  13.634  67.234  0.00  0.00    +0.073 C 
ATOM      4  C   UNL     1      -8.336  14.945  66.988  0.00  0.00    +0.051 C 
ATOM      5  C   UNL     1      -7.090  15.718  67.205  0.00  0.00    +0.049 C 
ATOM      6  N   UNL     1      -9.643  15.508  67.176  0.00  0.00    -0.219 NA
ATOM      7  C   UNL     1     -10.679  14.621  67.621  0.00  0.00    +0.080 C 
ENDROOT
BRANCH   2   8
ATOM      8  C   UNL     1      -9.181  11.441  66.863  0.00  0.00    -0.003 A 
ATOM      9  C   UNL     1      -9.341  10.465  65.909  0.00  0.00    +0.054 A 
ATOM     10 CL   UNL     1      -9.126  10.778  64.215  0.00  0.00    -0.083 Cl
ATOM     11  C   UNL     1      -9.834   9.242  66.341  0.00  0.00    +0.011 A 
ATOM     12  C   UNL     1      -9.730   8.949  67.695  0.00  0.00    +0.001 A 
ATOM     13  C   UNL     1      -9.255   9.902  68.589  0.00  0.00    -0.000 A 
ATOM     14  C   UNL     1      -9.355  11.228  68.177  0.00  0.00    -0.003 A 
ENDBRANCH   2   8
BRANCH   1  15
ATOM     15  C   UNL     1     -11.804  12.534  67.212  0.00  0.00    +0.339 C 
ATOM     16  O   UNL     1     -12.068  11.733  68.158  0.00  0.00    -0.245 OA
BRANCH  15  17
ATOM     17  O   UNL     1     -12.031  12.066  65.938  0.00  0.00    -0.446 OA
BRANCH  17  19
ATOM     18  C   UNL     1     -12.342  12.195  63.543  0.00  0.00    +0.051 C 
ATOM     19  C   UNL     1     -12.628  12.800  64.901  0.00  0.00    +0.209 C 
ENDBRANCH  17  19
ENDBRANCH  15  17
ENDBRANCH   1  15
BRANCH   3  20
ATOM     20  C   UNL     1      -7.151  12.900  67.647  0.00  0.00    +0.339 C 
ATOM     21  O   UNL     1      -6.204  12.450  66.948  0.00  0.00    -0.245 OA
BRANCH  20  22
ATOM     22  O   UNL     1      -6.905  12.848  69.026  0.00  0.00    -0.442 OA
ATOM     23  C   UNL     1      -5.727  12.399  69.618  0.00  0.00    +0.256 C 
ENDBRANCH  20  22
ENDBRANCH   3  20
BRANCH   7  24
ATOM     24  C   UNL     1     -11.768  15.081  68.532  0.00  0.00    +0.185 C 
BRANCH  24  25
ATOM     25  O   UNL     1     -11.369  14.878  69.866  0.00  0.00    -0.346 OA
BRANCH  25  26
ATOM     26  C   UNL     1     -12.450  14.478  70.643  0.00  0.00    +0.163 C 
BRANCH  26  27
ATOM     27  C   UNL     1     -12.993  15.563  71.520  0.00  0.00    +0.141 C 
ATOM     28  N   UNL     1     -14.431  15.496  71.605  0.00  0.00    -0.129 NA
ENDBRANCH  26  27
ENDBRANCH  25  26
ENDBRANCH  24  25
ENDBRANCH   7  24
TORSDOF 10
ENDMDL
