MODEL 1
REMARK VINA RESULT:      -5.2      0.000      0.000
REMARK  Name = 
REMARK  12 active torsions:
REMARK  status: ('A' for Active; 'I' for Inactive)
REMARK    1  A    between atoms: C_2  and  N_4
REMARK    2  A    between atoms: N_4  and  C_5
REMARK    3  A    between atoms: C_5  and  C_6
REMARK    4  A    between atoms: C_6  and  C_8
REMARK    5  A    between atoms: C_8  and  O_9
REMARK    6  A    between atoms: O_9  and  C_10
REMARK    7  A    between atoms: C_13  and  C_14
REMARK    8  A    between atoms: C_14  and  O_15
REMARK    9  A    between atoms: O_15  and  C_16
REMARK   10  A    between atoms: C_16  and  C_17
REMARK   11  A    between atoms: C_17  and  O_18
REMARK   12  A    between atoms: O_18  and  C_19
REMARK                            x       y       z     vdW  Elec       q    Type
REMARK                         _______ _______ _______ _____ _____    ______ ____
ROOT
ATOM      1  C   UNL     1     -10.671  12.357  68.657  0.00  0.00    +0.139 A 
ATOM      2  C   UNL     1     -11.492  11.273  68.430  0.00  0.00    +0.037 A 
ATOM      3  C   UNL     1     -11.182  10.354  67.443  0.00  0.00    +0.001 A 
ATOM      4  C   UNL     1     -10.030  10.496  66.685  0.00  0.00    +0.007 A 
ATOM      5  C   UNL     1      -9.108  11.413  67.143  0.00  0.00    +0.001 A 
ATOM      6  C   UNL     1      -9.411  12.362  68.112  0.00  0.00    +0.037 A 
ENDROOT
BRANCH   1   7
ATOM      7  O   UNL     1     -11.233  13.442  69.313  0.00  0.00    -0.473 OA
BRANCH   7   8
ATOM      8  C   UNL     1     -10.646  14.727  69.134  0.00  0.00    +0.240 C 
BRANCH   8   9
ATOM      9  C   UNL     1     -11.964  15.712  69.243  0.00  0.00    +0.213 C 
ATOM     10  O   UNL     1     -11.128  16.947  68.953  0.00  0.00    -0.218 OA
BRANCH   9  11
ATOM     11  C   UNL     1     -11.766  15.893  70.870  0.00  0.00    +0.125 C 
BRANCH  11  12
ATOM     12  N   UNL     1     -13.119  15.750  71.362  0.00  0.00    -0.217 NA
BRANCH  12  14
ATOM     13  C   UNL     1     -13.689  14.030  72.390  0.00  0.00    +0.019 C 
ATOM     14  C   UNL     1     -13.184  14.760  72.425  0.00  0.00    +0.073 C 
ATOM     15  C   UNL     1     -12.685  15.312  73.745  0.00  0.00    +0.019 C 
ENDBRANCH  12  14
ENDBRANCH  11  12
ENDBRANCH   9  11
ENDBRANCH   8   9
ENDBRANCH   7   8
ENDBRANCH   1   7
BRANCH   4  16
ATOM     16  C   UNL     1      -9.876   9.886  65.348  0.00  0.00    +0.169 C 
BRANCH  16  17
ATOM     17  O   UNL     1      -9.695  10.889  64.417  0.00  0.00    -0.346 OA
BRANCH  17  18
ATOM     18  C   UNL     1     -10.825  11.179  63.674  0.00  0.00    +0.175 C 
BRANCH  18  19
ATOM     19  C   UNL     1     -11.255  12.596  63.717  0.00  0.00    +0.174 C 
BRANCH  19  20
ATOM     20  O   UNL     1     -10.474  13.475  64.376  0.00  0.00    -0.354 OA
BRANCH  20  21
ATOM     21  C   UNL     1     -10.995  14.184  65.412  0.00  0.00    +0.115 C 
ATOM     22  C   UNL     1     -12.421  13.928  65.755  0.00  0.00    +0.032 C 
ATOM     23  C   UNL     1     -10.858  15.655  65.030  0.00  0.00    +0.032 C 
ENDBRANCH  20  21
ENDBRANCH  19  20
ENDBRANCH  18  19
ENDBRANCH  17  18
ENDBRANCH  16  17
ENDBRANCH   4  16
TORSDOF 12
ENDMDL
MODEL 2
REMARK VINA RESULT:      -5.2      3.879      7.552
REMARK  Name = 
REMARK  12 active torsions:
REMARK  status: ('A' for Active; 'I' for Inactive)
REMARK    1  A    between atoms: C_2  and  N_4
REMARK    2  A    between atoms: N_4  and  C_5
REMARK    3  A    between atoms: C_5  and  C_6
REMARK    4  A    between atoms: C_6  and  C_8
REMARK    5  A    between atoms: C_8  and  O_9
REMARK    6  A    between atoms: O_9  and  C_10
REMARK    7  A    between atoms: C_13  and  C_14
REMARK    8  A    between atoms: C_14  and  O_15
REMARK    9  A    between atoms: O_15  and  C_16
REMARK   10  A    between atoms: C_16  and  C_17
REMARK   11  A    between atoms: C_17  and  O_18
REMARK   12  A    between atoms: O_18  and  C_19
REMARK                            x       y       z     vdW  Elec       q    Type
REMARK                         _______ _______ _______ _____ _____    ______ ____
ROOT
ATOM      1  C   UNL     1     -11.663  12.224  67.815  0.00  0.00    +0.139 A 
ATOM      2  C   UNL     1     -11.862  13.158  68.810  0.00  0.00    +0.037 A 
ATOM      3  C   UNL     1     -12.113  12.753  70.110  0.00  0.00    +0.001 A 
ATOM      4  C   UNL     1     -12.144  11.406  70.435  0.00  0.00    +0.007 A 
ATOM      5  C   UNL     1     -11.654  10.538  69.484  0.00  0.00    +0.001 A 
ATOM      6  C   UNL     1     -11.423  10.918  68.167  0.00  0.00    +0.037 A 
ENDROOT
BRANCH   1   7
ATOM      7  O   UNL     1     -11.859  12.648  66.509  0.00  0.00    -0.473 OA
BRANCH   7   8
ATOM      8  C   UNL     1     -12.071  14.034  66.266  0.00  0.00    +0.240 C 
BRANCH   8   9
ATOM      9  C   UNL     1     -12.106  14.082  64.618  0.00  0.00    +0.213 C 
ATOM     10  O   UNL     1     -12.879  12.778  64.545  0.00  0.00    -0.218 OA
BRANCH   9  11
ATOM     11  C   UNL     1     -10.661  13.295  64.508  0.00  0.00    +0.125 C 
BRANCH  11  12
ATOM     12  N   UNL     1     -10.889  12.386  63.406  0.00  0.00    -0.217 NA
BRANCH  12  14
ATOM     13  C   UNL     1      -9.433  11.083  62.683  0.00  0.00    +0.019 C 
ATOM     14  C   UNL     1      -9.902  11.317  63.400  0.00  0.00    +0.073 C 
ATOM     15  C   UNL     1     -10.085  10.372  64.570  0.00  0.00    +0.019 C 
ENDBRANCH  12  14
ENDBRANCH  11  12
ENDBRANCH   9  11
ENDBRANCH   8   9
ENDBRANCH   7   8
ENDBRANCH   1   7
BRANCH   4  16
ATOM     16  C   UNL     1     -12.861  10.888  71.619  0.00  0.00    +0.169 C 
BRANCH  16  17
ATOM     17  O   UNL     1     -13.574   9.765  71.255  0.00  0.00    -0.346 OA
BRANCH  17  18
ATOM     18  C   UNL     1     -13.485   8.723  72.160  0.00  0.00    +0.175 C 
BRANCH  18  19
ATOM     19  C   UNL     1     -12.989   7.445  71.596  0.00  0.00    +0.174 C 
BRANCH  19  20
ATOM     20  O   UNL     1     -11.679   7.162  71.729  0.00  0.00    -0.354 OA
BRANCH  20  21
ATOM     21  C   UNL     1     -10.924   7.886  72.597  0.00  0.00    +0.115 C 
ATOM     22  C   UNL     1      -9.731   8.578  72.039  0.00  0.00    +0.032 C 
ATOM     23  C   UNL     1     -10.446   6.904  73.663  0.00  0.00    +0.032 C 
ENDBRANCH  20  21
ENDBRANCH  19  20
ENDBRANCH  18  19
ENDBRANCH  17  18
ENDBRANCH  16  17
ENDBRANCH   4  16
TORSDOF 12
ENDMDL
MODEL 3
REMARK VINA RESULT:      -5.0      1.259      3.249
REMARK  Name = 
REMARK  12 active torsions:
REMARK  status: ('A' for Active; 'I' for Inactive)
REMARK    1  A    between atoms: C_2  and  N_4
REMARK    2  A    between atoms: N_4  and  C_5
REMARK    3  A    between atoms: C_5  and  C_6
REMARK    4  A    between atoms: C_6  and  C_8
REMARK    5  A    between atoms: C_8  and  O_9
REMARK    6  A    between atoms: O_9  and  C_10
REMARK    7  A    between atoms: C_13  and  C_14
REMARK    8  A    between atoms: C_14  and  O_15
REMARK    9  A    between atoms: O_15  and  C_16
REMARK   10  A    between atoms: C_16  and  C_17
REMARK   11  A    between atoms: C_17  and  O_18
REMARK   12  A    between atoms: O_18  and  C_19
REMARK                            x       y       z     vdW  Elec       q    Type
REMARK                         _______ _______ _______ _____ _____    ______ ____
ROOT
ATOM      1  C   UNL     1     -11.930  14.266  66.475  0.00  0.00    +0.139 A 
ATOM      2  C   UNL     1     -10.646  14.528  66.048  0.00  0.00    +0.037 A 
ATOM      3  C   UNL     1     -10.122  13.861  64.954  0.00  0.00    +0.001 A 
ATOM      4  C   UNL     1     -10.888  12.940  64.257  0.00  0.00    +0.007 A 
ATOM      5  C   UNL     1     -12.237  12.933  64.537  0.00  0.00    +0.001 A 
ATOM      6  C   UNL     1     -12.778  13.572  65.647  0.00  0.00    +0.037 A 
ENDROOT
BRANCH   1   7
ATOM      7  O   UNL     1     -12.237  14.606  67.784  0.00  0.00    -0.473 OA
BRANCH   7   8
ATOM      8  C   UNL     1     -11.465  15.615  68.426  0.00  0.00    +0.240 C 
BRANCH   8   9
ATOM      9  C   UNL     1     -11.031  14.861  69.827  0.00  0.00    +0.213 C 
ATOM     10  O   UNL     1     -12.178  13.873  69.711  0.00  0.00    -0.218 OA
BRANCH   9  11
ATOM     11  C   UNL     1     -11.940  15.896  70.733  0.00  0.00    +0.125 C 
BRANCH  11  12
ATOM     12  N   UNL     1     -11.641  15.468  72.082  0.00  0.00    -0.217 NA
BRANCH  12  14
ATOM     13  C   UNL     1     -13.646  15.676  72.606  0.00  0.00    +0.019 C 
ATOM     14  C   UNL     1     -12.833  15.496  72.914  0.00  0.00    +0.073 C 
ATOM     15  C   UNL     1     -12.494  15.641  74.384  0.00  0.00    +0.019 C 
ENDBRANCH  12  14
ENDBRANCH  11  12
ENDBRANCH   9  11
ENDBRANCH   8   9
ENDBRANCH   7   8
ENDBRANCH   1   7
BRANCH   4  16
ATOM     16  C   UNL     1     -10.291  11.867  63.433  0.00  0.00    +0.169 C 
BRANCH  16  17
ATOM     17  O   UNL     1      -9.331  11.212  64.178  0.00  0.00    -0.346 OA
BRANCH  17  18
ATOM     18  C   UNL     1      -9.698   9.941  64.578  0.00  0.00    +0.175 C 
BRANCH  18  19
ATOM     19  C   UNL     1      -9.829   9.759  66.043  0.00  0.00    +0.174 C 
BRANCH  19  20
ATOM     20  O   UNL     1     -10.899  10.304  66.655  0.00  0.00    -0.354 OA
BRANCH  20  21
ATOM     21  C   UNL     1     -10.708  11.175  67.681  0.00  0.00    +0.115 C 
ATOM     22  C   UNL     1      -9.303  11.552  67.993  0.00  0.00    +0.032 C 
ATOM     23  C   UNL     1     -11.304  10.509  68.918  0.00  0.00    +0.032 C 
ENDBRANCH  20  21
ENDBRANCH  19  20
ENDBRANCH  18  19
ENDBRANCH  17  18
ENDBRANCH  16  17
ENDBRANCH   4  16
TORSDOF 12
ENDMDL
MODEL 4
REMARK VINA RESULT:      -5.0      2.110      3.315
REMARK  Name = 
REMARK  12 active torsions:
REMARK  status: ('A' for Active; 'I' for Inactive)
REMARK    1  A    between atoms: C_2  and  N_4
REMARK    2  A    between atoms: N_4  and  C_5
REMARK    3  A    between atoms: C_5  and  C_6
REMARK    4  A    between atoms: C_6  and  C_8
REMARK    5  A    between atoms: C_8  and  O_9
REMARK    6  A    between atoms: O_9  and  C_10
REMARK    7  A    between atoms: C_13  and  C_14
REMARK    8  A    between atoms: C_14  and  O_15
REMARK    9  A    between atoms: O_15  and  C_16
REMARK   10  A    between atoms: C_16  and  C_17
REMARK   11  A    between atoms: C_17  and  O_18
REMARK   12  A    between atoms: O_18  and  C_19
REMARK                            x       y       z     vdW  Elec       q    Type
REMARK                         _______ _______ _______ _____ _____    ______ ____
ROOT
ATOM      1  C   UNL     1     -10.400  13.036  68.481  0.00  0.00    +0.139 A 
ATOM      2  C   UNL     1     -11.416  12.117  68.326  0.00  0.00    +0.037 A 
ATOM      3  C   UNL     1     -11.255  11.031  67.482  0.00  0.00    +0.001 A 
ATOM      4  C   UNL     1     -10.065  10.839  66.800  0.00  0.00    +0.007 A 
ATOM      5  C   UNL     1      -8.996  11.607  67.210  0.00  0.00    +0.001 A 
ATOM      6  C   UNL     1      -9.141  12.717  68.033  0.00  0.00    +0.037 A 
ENDROOT
BRANCH   1   7
ATOM      7  O   UNL     1     -10.756  14.288  68.959  0.00  0.00    -0.473 OA
BRANCH   7   8
ATOM      8  C   UNL     1      -9.837  15.364  68.805  0.00  0.00    +0.240 C 
BRANCH   8   9
ATOM      9  C   UNL     1     -10.646  16.600  69.538  0.00  0.00    +0.213 C 
ATOM     10  O   UNL     1     -11.780  16.523  68.531  0.00  0.00    -0.218 OA
BRANCH   9  11
ATOM     11  C   UNL     1      -9.851  17.731  68.637  0.00  0.00    +0.125 C 
BRANCH  11  12
ATOM     12  N   UNL     1     -10.871  18.154  67.703  0.00  0.00    -0.217 NA
BRANCH  12  14
ATOM     13  C   UNL     1     -10.621  19.441  66.085  0.00  0.00    +0.019 C 
ATOM     14  C   UNL     1     -10.433  19.314  66.943  0.00  0.00    +0.073 C 
ATOM     15  C   UNL     1      -9.276  20.025  67.614  0.00  0.00    +0.019 C 
ENDBRANCH  12  14
ENDBRANCH  11  12
ENDBRANCH   9  11
ENDBRANCH   8   9
ENDBRANCH   7   8
ENDBRANCH   1   7
BRANCH   4  16
ATOM     16  C   UNL     1      -9.977  10.039  65.560  0.00  0.00    +0.169 C 
BRANCH  16  17
ATOM     17  O   UNL     1      -9.619  10.869  64.516  0.00  0.00    -0.346 OA
BRANCH  17  18
ATOM     18  C   UNL     1     -10.630  11.089  63.599  0.00  0.00    +0.175 C 
BRANCH  18  19
ATOM     19  C   UNL     1     -11.212  12.452  63.624  0.00  0.00    +0.174 C 
BRANCH  19  20
ATOM     20  O   UNL     1     -10.522  13.423  64.255  0.00  0.00    -0.354 OA
BRANCH  20  21
ATOM     21  C   UNL     1     -11.109  14.103  65.275  0.00  0.00    +0.115 C 
ATOM     22  C   UNL     1     -12.591  14.012  65.381  0.00  0.00    +0.032 C 
ATOM     23  C   UNL     1     -10.739  15.570  65.075  0.00  0.00    +0.032 C 
ENDBRANCH  20  21
ENDBRANCH  19  20
ENDBRANCH  18  19
ENDBRANCH  17  18
ENDBRANCH  16  17
ENDBRANCH   4  16
TORSDOF 12
ENDMDL
MODEL 5
REMARK VINA RESULT:      -5.0      3.562      6.705
REMARK  Name = 
REMARK  12 active torsions:
REMARK  status: ('A' for Active; 'I' for Inactive)
REMARK    1  A    between atoms: C_2  and  N_4
REMARK    2  A    between atoms: N_4  and  C_5
REMARK    3  A    between atoms: C_5  and  C_6
REMARK    4  A    between atoms: C_6  and  C_8
REMARK    5  A    between atoms: C_8  and  O_9
REMARK    6  A    between atoms: O_9  and  C_10
REMARK    7  A    between atoms: C_13  and  C_14
REMARK    8  A    between atoms: C_14  and  O_15
REMARK    9  A    between atoms: O_15  and  C_16
REMARK   10  A    between atoms: C_16  and  C_17
REMARK   11  A    between atoms: C_17  and  O_18
REMARK   12  A    between atoms: O_18  and  C_19
REMARK                            x       y       z     vdW  Elec       q    Type
REMARK                         _______ _______ _______ _____ _____    ______ ____
ROOT
ATOM      1  C   UNL     1     -11.772  13.047  68.018  0.00  0.00    +0.139 A 
ATOM      2  C   UNL     1     -11.955  13.559  69.285  0.00  0.00    +0.037 A 
ATOM      3  C   UNL     1     -12.087  12.710  70.370  0.00  0.00    +0.001 A 
ATOM      4  C   UNL     1     -12.013  11.337  70.204  0.00  0.00    +0.007 A 
ATOM      5  C   UNL     1     -11.541  10.894  68.986  0.00  0.00    +0.001 A 
ATOM      6  C   UNL     1     -11.429  11.725  67.878  0.00  0.00    +0.037 A 
ENDROOT
BRANCH   1   7
ATOM      7  O   UNL     1     -12.087  13.881  66.954  0.00  0.00    -0.473 OA
BRANCH   7   8
ATOM      8  C   UNL     1     -12.452  13.292  65.711  0.00  0.00    +0.240 C 
BRANCH   8   9
ATOM      9  C   UNL     1     -12.440  14.600  64.707  0.00  0.00    +0.213 C 
ATOM     10  O   UNL     1     -12.474  13.717  63.472  0.00  0.00    -0.218 OA
BRANCH   9  11
ATOM     11  C   UNL     1     -10.791  14.648  64.695  0.00  0.00    +0.125 C 
BRANCH  11  12
ATOM     12  N   UNL     1     -10.522  16.047  64.944  0.00  0.00    -0.217 NA
BRANCH  12  14
ATOM     13  C   UNL     1      -8.957  15.637  66.255  0.00  0.00    +0.019 C 
ATOM     14  C   UNL     1      -9.605  16.211  66.061  0.00  0.00    +0.073 C 
ATOM     15  C   UNL     1     -10.143  17.177  67.097  0.00  0.00    +0.019 C 
ENDBRANCH  12  14
ENDBRANCH  11  12
ENDBRANCH   9  11
ENDBRANCH   8   9
ENDBRANCH   7   8
ENDBRANCH   1   7
BRANCH   4  16
ATOM     16  C   UNL     1     -12.610  10.384  71.163  0.00  0.00    +0.169 C 
BRANCH  16  17
ATOM     17  O   UNL     1     -11.637   9.498  71.579  0.00  0.00    -0.346 OA
BRANCH  17  18
ATOM     18  C   UNL     1     -12.132   8.372  72.209  0.00  0.00    +0.175 C 
BRANCH  18  19
ATOM     19  C   UNL     1     -11.615   7.084  71.689  0.00  0.00    +0.174 C 
BRANCH  19  20
ATOM     20  O   UNL     1     -12.112   6.628  70.522  0.00  0.00    -0.354 OA
BRANCH  20  21
ATOM     21  C   UNL     1     -11.264   6.116  69.591  0.00  0.00    +0.115 C 
ATOM     22  C   UNL     1     -10.244   5.144  70.070  0.00  0.00    +0.032 C 
ATOM     23  C   UNL     1     -10.531   7.309  68.984  0.00  0.00    +0.032 C 
ENDBRANCH  20  21
ENDBRANCH  19  20
ENDBRANCH  18  19
ENDBRANCH  17  18
ENDBRANCH  16  17
ENDBRANCH   4  16
TORSDOF 12
ENDMDL
MODEL 6
REMARK VINA RESULT:      -5.0      3.608      6.549
REMARK  Name = 
REMARK  12 active torsions:
REMARK  status: ('A' for Active; 'I' for Inactive)
REMARK    1  A    between atoms: C_2  and  N_4
REMARK    2  A    between atoms: N_4  and  C_5
REMARK    3  A    between atoms: C_5  and  C_6
REMARK    4  A    between atoms: C_6  and  C_8
REMARK    5  A    between atoms: C_8  and  O_9
REMARK    6  A    between atoms: O_9  and  C_10
REMARK    7  A    between atoms: C_13  and  C_14
REMARK    8  A    between atoms: C_14  and  O_15
REMARK    9  A    between atoms: O_15  and  C_16
REMARK   10  A    between atoms: C_16  and  C_17
REMARK   11  A    between atoms: C_17  and  O_18
REMARK   12  A    between atoms: O_18  and  C_19
REMARK                            x       y       z     vdW  Elec       q    Type
REMARK                         _______ _______ _______ _____ _____    ______ ____
ROOT
ATOM      1  C   UNL     1     -11.230  10.332  69.048  0.00  0.00    +0.139 A 
ATOM      2  C   UNL     1     -11.763  11.115  70.050  0.00  0.00    +0.037 A 
ATOM      3  C   UNL     1     -12.016  12.458  69.829  0.00  0.00    +0.001 A 
ATOM      4  C   UNL     1     -11.761  13.029  68.593  0.00  0.00    +0.007 A 
ATOM      5  C   UNL     1     -11.514  12.155  67.557  0.00  0.00    +0.001 A 
ATOM      6  C   UNL     1     -11.229  10.810  67.761  0.00  0.00    +0.037 A 
ENDROOT
BRANCH   1   7
ATOM      7  O   UNL     1     -10.600   9.160  69.438  0.00  0.00    -0.473 OA
BRANCH   7   8
ATOM      8  C   UNL     1      -9.851   9.156  70.648  0.00  0.00    +0.240 C 
BRANCH   8   9
ATOM      9  C   UNL     1     -10.079   7.611  71.177  0.00  0.00    +0.213 C 
ATOM     10  O   UNL     1     -11.080   7.326  70.071  0.00  0.00    -0.218 OA
BRANCH   9  11
ATOM     11  C   UNL     1     -11.274   8.081  72.212  0.00  0.00    +0.125 C 
BRANCH  11  12
ATOM     12  N   UNL     1     -12.453   7.507  71.603  0.00  0.00    -0.217 NA
BRANCH  12  14
ATOM     13  C   UNL     1     -13.610   9.077  72.336  0.00  0.00    +0.019 C 
ATOM     14  C   UNL     1     -13.632   8.309  71.890  0.00  0.00    +0.073 C 
ATOM     15  C   UNL     1     -14.909   7.504  71.766  0.00  0.00    +0.019 C 
ENDBRANCH  12  14
ENDBRANCH  11  12
ENDBRANCH   9  11
ENDBRANCH   8   9
ENDBRANCH   7   8
ENDBRANCH   1   7
BRANCH   4  16
ATOM     16  C   UNL     1     -11.534  14.479  68.416  0.00  0.00    +0.169 C 
BRANCH  16  17
ATOM     17  O   UNL     1     -10.647  14.915  69.379  0.00  0.00    -0.346 OA
BRANCH  17  18
ATOM     18  C   UNL     1     -10.941  16.165  69.892  0.00  0.00    +0.175 C 
BRANCH  18  19
ATOM     19  C   UNL     1     -11.785  16.159  71.111  0.00  0.00    +0.174 C 
BRANCH  19  20
ATOM     20  O   UNL     1     -11.646  15.131  71.971  0.00  0.00    -0.354 OA
BRANCH  20  21
ATOM     21  C   UNL     1     -12.694  14.776  72.761  0.00  0.00    +0.115 C 
ATOM     22  C   UNL     1     -14.059  15.061  72.238  0.00  0.00    +0.032 C 
ATOM     23  C   UNL     1     -12.519  15.545  74.067  0.00  0.00    +0.032 C 
ENDBRANCH  20  21
ENDBRANCH  19  20
ENDBRANCH  18  19
ENDBRANCH  17  18
ENDBRANCH  16  17
ENDBRANCH   4  16
TORSDOF 12
ENDMDL
MODEL 7
REMARK VINA RESULT:      -5.0      2.061      6.734
REMARK  Name = 
REMARK  12 active torsions:
REMARK  status: ('A' for Active; 'I' for Inactive)
REMARK    1  A    between atoms: C_2  and  N_4
REMARK    2  A    between atoms: N_4  and  C_5
REMARK    3  A    between atoms: C_5  and  C_6
REMARK    4  A    between atoms: C_6  and  C_8
REMARK    5  A    between atoms: C_8  and  O_9
REMARK    6  A    between atoms: O_9  and  C_10
REMARK    7  A    between atoms: C_13  and  C_14
REMARK    8  A    between atoms: C_14  and  O_15
REMARK    9  A    between atoms: O_15  and  C_16
REMARK   10  A    between atoms: C_16  and  C_17
REMARK   11  A    between atoms: C_17  and  O_18
REMARK   12  A    between atoms: O_18  and  C_19
REMARK                            x       y       z     vdW  Elec       q    Type
REMARK                         _______ _______ _______ _____ _____    ______ ____
ROOT
ATOM      1  C   UNL     1     -11.955  14.131  64.718  0.00  0.00    +0.139 A 
ATOM      2  C   UNL     1     -12.584  13.731  65.878  0.00  0.00    +0.037 A 
ATOM      3  C   UNL     1     -12.062  14.079  67.113  0.00  0.00    +0.001 A 
ATOM      4  C   UNL     1     -10.917  14.855  67.200  0.00  0.00    +0.007 A 
ATOM      5  C   UNL     1     -10.504  15.467  66.036  0.00  0.00    +0.001 A 
ATOM      6  C   UNL     1     -10.995  15.110  64.786  0.00  0.00    +0.037 A 
ENDROOT
BRANCH   1   7
ATOM      7  O   UNL     1     -12.244  13.410  63.569  0.00  0.00    -0.473 OA
BRANCH   7   8
ATOM      8  C   UNL     1     -11.976  12.012  63.554  0.00  0.00    +0.240 C 
BRANCH   8   9
ATOM      9  C   UNL     1     -10.331  11.987  63.660  0.00  0.00    +0.213 C 
ATOM     10  O   UNL     1     -10.225  10.949  62.557  0.00  0.00    -0.218 OA
BRANCH   9  11
ATOM     11  C   UNL     1     -10.367  10.822  64.827  0.00  0.00    +0.125 C 
BRANCH  11  12
ATOM     12  N   UNL     1      -9.714  11.479  65.939  0.00  0.00    -0.217 NA
BRANCH  12  14
ATOM     13  C   UNL     1     -10.969  10.618  67.361  0.00  0.00    +0.019 C 
ATOM     14  C   UNL     1     -10.146  10.911  67.206  0.00  0.00    +0.073 C 
ATOM     15  C   UNL     1      -9.213  11.286  68.340  0.00  0.00    +0.019 C 
ENDBRANCH  12  14
ENDBRANCH  11  12
ENDBRANCH   9  11
ENDBRANCH   8   9
ENDBRANCH   7   8
ENDBRANCH   1   7
BRANCH   4  16
ATOM     16  C   UNL     1     -10.047  14.858  68.395  0.00  0.00    +0.169 C 
BRANCH  16  17
ATOM     17  O   UNL     1      -9.912  16.155  68.847  0.00  0.00    -0.346 OA
BRANCH  17  18
ATOM     18  C   UNL     1     -10.916  16.559  69.708  0.00  0.00    +0.175 C 
BRANCH  18  19
ATOM     19  C   UNL     1     -11.226  15.606  70.800  0.00  0.00    +0.174 C 
BRANCH  19  20
ATOM     20  O   UNL     1     -11.885  16.072  71.878  0.00  0.00    -0.354 OA
BRANCH  20  21
ATOM     21  C   UNL     1     -12.721  15.243  72.558  0.00  0.00    +0.115 C 
ATOM     22  C   UNL     1     -14.170  15.332  72.233  0.00  0.00    +0.032 C 
ATOM     23  C   UNL     1     -12.547  15.585  74.035  0.00  0.00    +0.032 C 
ENDBRANCH  20  21
ENDBRANCH  19  20
ENDBRANCH  18  19
ENDBRANCH  17  18
ENDBRANCH  16  17
ENDBRANCH   4  16
TORSDOF 12
ENDMDL
MODEL 8
REMARK VINA RESULT:      -5.0      2.474      6.165
REMARK  Name = 
REMARK  12 active torsions:
REMARK  status: ('A' for Active; 'I' for Inactive)
REMARK    1  A    between atoms: C_2  and  N_4
REMARK    2  A    between atoms: N_4  and  C_5
REMARK    3  A    between atoms: C_5  and  C_6
REMARK    4  A    between atoms: C_6  and  C_8
REMARK    5  A    between atoms: C_8  and  O_9
REMARK    6  A    between atoms: O_9  and  C_10
REMARK    7  A    between atoms: C_13  and  C_14
REMARK    8  A    between atoms: C_14  and  O_15
REMARK    9  A    between atoms: O_15  and  C_16
REMARK   10  A    between atoms: C_16  and  C_17
REMARK   11  A    between atoms: C_17  and  O_18
REMARK   12  A    between atoms: O_18  and  C_19
REMARK                            x       y       z     vdW  Elec       q    Type
REMARK                         _______ _______ _______ _____ _____    ______ ____
ROOT
ATOM      1  C   UNL     1     -11.575  12.419  66.978  0.00  0.00    +0.139 A 
ATOM      2  C   UNL     1     -11.587  13.307  68.032  0.00  0.00    +0.037 A 
ATOM      3  C   UNL     1     -11.712  12.849  69.332  0.00  0.00    +0.001 A 
ATOM      4  C   UNL     1     -11.802  11.491  69.595  0.00  0.00    +0.007 A 
ATOM      5  C   UNL     1     -11.492  10.646  68.552  0.00  0.00    +0.001 A 
ATOM      6  C   UNL     1     -11.392  11.083  67.236  0.00  0.00    +0.037 A 
ENDROOT
BRANCH   1   7
ATOM      7  O   UNL     1     -11.892  12.927  65.727  0.00  0.00    -0.473 OA
BRANCH   7   8
ATOM      8  C   UNL     1     -12.783  14.034  65.645  0.00  0.00    +0.240 C 
BRANCH   8   9
ATOM      9  C   UNL     1     -12.331  14.721  64.216  0.00  0.00    +0.213 C 
ATOM     10  O   UNL     1     -12.254  13.368  63.531  0.00  0.00    -0.218 OA
BRANCH   9  11
ATOM     11  C   UNL     1     -10.735  14.665  64.628  0.00  0.00    +0.125 C 
BRANCH  11  12
ATOM     12  N   UNL     1     -10.495  16.006  65.114  0.00  0.00    -0.217 NA
BRANCH  12  14
ATOM     13  C   UNL     1      -8.954  15.363  66.360  0.00  0.00    +0.019 C 
ATOM     14  C   UNL     1      -9.562  15.997  66.229  0.00  0.00    +0.073 C 
ATOM     15  C   UNL     1     -10.022  16.895  67.360  0.00  0.00    +0.019 C 
ENDBRANCH  12  14
ENDBRANCH  11  12
ENDBRANCH   9  11
ENDBRANCH   8   9
ENDBRANCH   7   8
ENDBRANCH   1   7
BRANCH   4  16
ATOM     16  C   UNL     1     -12.410  10.958  70.832  0.00  0.00    +0.169 C 
BRANCH  16  17
ATOM     17  O   UNL     1     -12.436  11.956  71.785  0.00  0.00    -0.346 OA
BRANCH  17  18
ATOM     18  C   UNL     1     -13.704  12.418  72.084  0.00  0.00    +0.175 C 
BRANCH  18  19
ATOM     19  C   UNL     1     -13.776  13.848  72.466  0.00  0.00    +0.174 C 
BRANCH  19  20
ATOM     20  O   UNL     1     -13.507  14.770  71.521  0.00  0.00    -0.354 OA
BRANCH  20  21
ATOM     21  C   UNL     1     -12.726  15.837  71.833  0.00  0.00    +0.115 C 
ATOM     22  C   UNL     1     -11.533  16.074  70.976  0.00  0.00    +0.032 C 
ATOM     23  C   UNL     1     -12.242  15.604  73.262  0.00  0.00    +0.032 C 
ENDBRANCH  20  21
ENDBRANCH  19  20
ENDBRANCH  18  19
ENDBRANCH  17  18
ENDBRANCH  16  17
ENDBRANCH   4  16
TORSDOF 12
ENDMDL
MODEL 9
REMARK VINA RESULT:      -4.9      3.333      6.592
REMARK  Name = 
REMARK  12 active torsions:
REMARK  status: ('A' for Active; 'I' for Inactive)
REMARK    1  A    between atoms: C_2  and  N_4
REMARK    2  A    between atoms: N_4  and  C_5
REMARK    3  A    between atoms: C_5  and  C_6
REMARK    4  A    between atoms: C_6  and  C_8
REMARK    5  A    between atoms: C_8  and  O_9
REMARK    6  A    between atoms: O_9  and  C_10
REMARK    7  A    between atoms: C_13  and  C_14
REMARK    8  A    between atoms: C_14  and  O_15
REMARK    9  A    between atoms: O_15  and  C_16
REMARK   10  A    between atoms: C_16  and  C_17
REMARK   11  A    between atoms: C_17  and  O_18
REMARK   12  A    between atoms: O_18  and  C_19
REMARK                            x       y       z     vdW  Elec       q    Type
REMARK                         _______ _______ _______ _____ _____    ______ ____
ROOT
ATOM      1  C   UNL     1     -10.455  15.713  66.952  0.00  0.00    +0.139 A 
ATOM      2  C   UNL     1     -11.246  14.772  66.328  0.00  0.00    +0.037 A 
ATOM      3  C   UNL     1     -11.932  13.829  67.074  0.00  0.00    +0.001 A 
ATOM      4  C   UNL     1     -11.854  13.832  68.457  0.00  0.00    +0.007 A 
ATOM      5  C   UNL     1     -11.300  14.954  69.034  0.00  0.00    +0.001 A 
ATOM      6  C   UNL     1     -10.582  15.896  68.306  0.00  0.00    +0.037 A 
ENDROOT
BRANCH   1   7
ATOM      7  O   UNL     1      -9.475  16.319  66.179  0.00  0.00    -0.473 OA
BRANCH   7   8
ATOM      8  C   UNL     1      -8.109  16.045  66.470  0.00  0.00    +0.240 C 
BRANCH   8   9
ATOM      9  C   UNL     1      -7.381  17.448  66.001  0.00  0.00    +0.213 C 
ATOM     10  O   UNL     1      -6.007  16.919  66.371  0.00  0.00    -0.218 OA
BRANCH   9  11
ATOM     11  C   UNL     1      -7.584  18.120  67.493  0.00  0.00    +0.125 C 
BRANCH  11  12
ATOM     12  N   UNL     1      -8.083  19.439  67.171  0.00  0.00    -0.217 NA
BRANCH  12  14
ATOM     13  C   UNL     1      -9.723  19.442  68.456  0.00  0.00    +0.019 C 
ATOM     14  C   UNL     1      -9.455  19.602  67.625  0.00  0.00    +0.073 C 
ATOM     15  C   UNL     1     -10.434  19.620  66.469  0.00  0.00    +0.019 C 
ENDBRANCH  12  14
ENDBRANCH  11  12
ENDBRANCH   9  11
ENDBRANCH   8   9
ENDBRANCH   7   8
ENDBRANCH   1   7
BRANCH   4  16
ATOM     16  C   UNL     1     -12.127  12.630  69.274  0.00  0.00    +0.169 C 
BRANCH  16  17
ATOM     17  O   UNL     1     -11.878  12.924  70.599  0.00  0.00    -0.346 OA
BRANCH  17  18
ATOM     18  C   UNL     1     -12.940  12.659  71.444  0.00  0.00    +0.175 C 
BRANCH  18  19
ATOM     19  C   UNL     1     -13.713  13.849  71.870  0.00  0.00    +0.174 C 
BRANCH  19  20
ATOM     20  O   UNL     1     -13.492  14.338  73.106  0.00  0.00    -0.354 OA
BRANCH  20  21
ATOM     21  C   UNL     1     -13.105  15.633  73.252  0.00  0.00    +0.115 C 
ATOM     22  C   UNL     1     -12.168  16.176  72.231  0.00  0.00    +0.032 C 
ATOM     23  C   UNL     1     -12.423  15.720  74.614  0.00  0.00    +0.032 C 
ENDBRANCH  20  21
ENDBRANCH  19  20
ENDBRANCH  18  19
ENDBRANCH  17  18
ENDBRANCH  16  17
ENDBRANCH   4  16
TORSDOF 12
ENDMDL
