MODEL 1
REMARK VINA RESULT:      -5.4      0.000      0.000
REMARK  Name = 
REMARK  5 active torsions:
REMARK  status: ('A' for Active; 'I' for Inactive)
REMARK    1  A    between atoms: C_2  and  N_3
REMARK    2  A    between atoms: N_3  and  C_4
REMARK    3  A    between atoms: N_3  and  C_6
REMARK    4  A    between atoms: C_6  and  C_7
REMARK    5  A    between atoms: N_9  and  C_10
REMARK                            x       y       z     vdW  Elec       q    Type
REMARK                         _______ _______ _______ _____ _____    ______ ____
ROOT
ATOM      1  C   UNL     1     -11.134  15.421  69.961  0.00  0.00    +0.262 C 
ATOM      2  N   UNL     1     -11.669  16.259  68.944  0.00  0.00    -0.179 NA
ATOM      3  O   UNL     1      -9.883  15.359  70.116  0.00  0.00    -0.271 OA
ENDROOT
BRANCH   2   4
ATOM      4  C   UNL     1     -10.926  16.311  67.720  0.00  0.00    +0.065 A 
ATOM      5  C   UNL     1      -9.969  17.300  67.560  0.00  0.00    -0.007 A 
ATOM      6  C   UNL     1     -10.262  18.649  68.133  0.00  0.00    +0.032 C 
ATOM      7  C   UNL     1      -8.923  17.123  66.668  0.00  0.00    -0.003 A 
ATOM      8  C   UNL     1      -8.686  15.853  66.161  0.00  0.00    -0.001 A 
ATOM      9  C   UNL     1      -9.802  15.029  66.089  0.00  0.00    -0.003 A 
ATOM     10  C   UNL     1     -10.921  15.236  66.849  0.00  0.00    -0.007 A 
ATOM     11  C   UNL     1     -12.047  14.266  66.903  0.00  0.00    +0.032 C 
ENDBRANCH   2   4
BRANCH   1  12
ATOM     12  C   UNL     1     -11.990  14.674  70.931  0.00  0.00    +0.161 C 
BRANCH  12  13
ATOM     13  N   UNL     1     -12.734  15.648  71.667  0.00  0.00    -0.265 NA
BRANCH  13  15
ATOM     14  C   UNL     1     -12.468  15.932  74.104  0.00  0.00    +0.019 C 
ATOM     15  C   UNL     1     -12.036  16.296  72.720  0.00  0.00    +0.073 C 
ENDBRANCH  13  15
BRANCH  13  16
ATOM     16  C   UNL     1     -14.095  15.304  71.929  0.00  0.00    +0.073 C 
ATOM     17  C   UNL     1     -14.123  13.788  72.098  0.00  0.00    +0.019 C 
ENDBRANCH  13  16
ENDBRANCH  12  13
ENDBRANCH   1  12
TORSDOF 5
ENDMDL
MODEL 2
REMARK VINA RESULT:      -5.3      3.335      4.833
REMARK  Name = 
REMARK  5 active torsions:
REMARK  status: ('A' for Active; 'I' for Inactive)
REMARK    1  A    between atoms: C_2  and  N_3
REMARK    2  A    between atoms: N_3  and  C_4
REMARK    3  A    between atoms: N_3  and  C_6
REMARK    4  A    between atoms: C_6  and  C_7
REMARK    5  A    between atoms: N_9  and  C_10
REMARK                            x       y       z     vdW  Elec       q    Type
REMARK                         _______ _______ _______ _____ _____    ______ ____
ROOT
ATOM      1  C   UNL     1      -9.875  15.692  65.854  0.00  0.00    +0.262 C 
ATOM      2  N   UNL     1      -8.781  16.126  66.651  0.00  0.00    -0.179 NA
ATOM      3  O   UNL     1     -10.389  16.491  65.023  0.00  0.00    -0.271 OA
ENDROOT
BRANCH   2   4
ATOM      4  C   UNL     1      -8.835  17.484  67.104  0.00  0.00    +0.065 A 
ATOM      5  C   UNL     1      -8.177  18.459  66.373  0.00  0.00    -0.007 A 
ATOM      6  C   UNL     1      -6.868  18.096  65.748  0.00  0.00    +0.032 C 
ATOM      7  C   UNL     1      -8.575  19.784  66.458  0.00  0.00    -0.003 A 
ATOM      8  C   UNL     1      -9.798  20.078  67.046  0.00  0.00    -0.001 A 
ATOM      9  C   UNL     1     -10.227  19.166  68.000  0.00  0.00    -0.003 A 
ATOM     10  C   UNL     1      -9.765  17.878  68.050  0.00  0.00    -0.007 A 
ATOM     11  C   UNL     1     -10.343  16.850  68.956  0.00  0.00    +0.032 C 
ENDBRANCH   2   4
BRANCH   1  12
ATOM     12  C   UNL     1     -10.394  14.292  65.880  0.00  0.00    +0.161 C 
BRANCH  12  13
ATOM     13  N   UNL     1     -11.736  14.354  66.368  0.00  0.00    -0.265 NA
BRANCH  13  15
ATOM     14  C   UNL     1     -10.838  13.081  68.282  0.00  0.00    +0.019 C 
ATOM     15  C   UNL     1     -11.928  13.927  67.709  0.00  0.00    +0.073 C 
ENDBRANCH  13  15
BRANCH  13  16
ATOM     16  C   UNL     1     -12.744  13.967  65.433  0.00  0.00    +0.073 C 
ATOM     17  C   UNL     1     -12.342  12.585  64.925  0.00  0.00    +0.019 C 
ENDBRANCH  13  16
ENDBRANCH  12  13
ENDBRANCH   1  12
TORSDOF 5
ENDMDL
MODEL 3
REMARK VINA RESULT:      -5.3      1.705      5.970
REMARK  Name = 
REMARK  5 active torsions:
REMARK  status: ('A' for Active; 'I' for Inactive)
REMARK    1  A    between atoms: C_2  and  N_3
REMARK    2  A    between atoms: N_3  and  C_4
REMARK    3  A    between atoms: N_3  and  C_6
REMARK    4  A    between atoms: C_6  and  C_7
REMARK    5  A    between atoms: N_9  and  C_10
REMARK                            x       y       z     vdW  Elec       q    Type
REMARK                         _______ _______ _______ _____ _____    ______ ____
ROOT
ATOM      1  C   UNL     1     -11.106  15.974  69.488  0.00  0.00    +0.262 C 
ATOM      2  N   UNL     1     -11.059  15.179  70.666  0.00  0.00    -0.179 NA
ATOM      3  O   UNL     1     -12.227  16.310  69.014  0.00  0.00    -0.271 OA
ENDROOT
BRANCH   2   4
ATOM      4  C   UNL     1     -12.068  14.168  70.782  0.00  0.00    +0.065 A 
ATOM      5  C   UNL     1     -11.865  12.947  70.160  0.00  0.00    -0.007 A 
ATOM      6  C   UNL     1     -11.178  12.948  68.832  0.00  0.00    +0.032 C 
ATOM      7  C   UNL     1     -12.521  11.814  70.614  0.00  0.00    -0.003 A 
ATOM      8  C   UNL     1     -13.146  11.856  71.854  0.00  0.00    -0.001 A 
ATOM      9  C   UNL     1     -13.582  13.112  72.251  0.00  0.00    -0.003 A 
ATOM     10  C   UNL     1     -13.065  14.270  71.735  0.00  0.00    -0.007 A 
ATOM     11  C   UNL     1     -13.404  15.613  72.277  0.00  0.00    +0.032 C 
ENDBRANCH   2   4
BRANCH   1  12
ATOM     12  C   UNL     1      -9.884  16.519  68.827  0.00  0.00    +0.161 C 
BRANCH  12  13
ATOM     13  N   UNL     1     -10.327  17.400  67.791  0.00  0.00    -0.265 NA
BRANCH  13  15
ATOM     14  C   UNL     1      -8.879  16.175  66.212  0.00  0.00    +0.019 C 
ATOM     15  C   UNL     1     -10.140  16.937  66.462  0.00  0.00    +0.073 C 
ENDBRANCH  13  15
BRANCH  13  16
ATOM     16  C   UNL     1     -10.070  18.786  68.019  0.00  0.00    +0.073 C 
ATOM     17  C   UNL     1     -10.574  19.519  66.779  0.00  0.00    +0.019 C 
ENDBRANCH  13  16
ENDBRANCH  12  13
ENDBRANCH   1  12
TORSDOF 5
ENDMDL
MODEL 4
REMARK VINA RESULT:      -5.2      0.829      2.219
REMARK  Name = 
REMARK  5 active torsions:
REMARK  status: ('A' for Active; 'I' for Inactive)
REMARK    1  A    between atoms: C_2  and  N_3
REMARK    2  A    between atoms: N_3  and  C_4
REMARK    3  A    between atoms: N_3  and  C_6
REMARK    4  A    between atoms: C_6  and  C_7
REMARK    5  A    between atoms: N_9  and  C_10
REMARK                            x       y       z     vdW  Elec       q    Type
REMARK                         _______ _______ _______ _____ _____    ______ ____
ROOT
ATOM      1  C   UNL     1     -11.337  15.271  70.139  0.00  0.00    +0.262 C 
ATOM      2  N   UNL     1     -11.896  15.939  69.014  0.00  0.00    -0.179 NA
ATOM      3  O   UNL     1     -10.085  15.273  70.300  0.00  0.00    -0.271 OA
ENDROOT
BRANCH   2   4
ATOM      4  C   UNL     1     -11.150  15.843  67.795  0.00  0.00    +0.065 A 
ATOM      5  C   UNL     1     -11.397  14.779  66.942  0.00  0.00    -0.007 A 
ATOM      6  C   UNL     1     -11.697  13.451  67.558  0.00  0.00    +0.032 C 
ATOM      7  C   UNL     1     -11.097  14.881  65.593  0.00  0.00    -0.003 A 
ATOM      8  C   UNL     1     -10.825  16.135  65.062  0.00  0.00    -0.001 A 
ATOM      9  C   UNL     1     -10.292  17.052  65.958  0.00  0.00    -0.003 A 
ATOM     10  C   UNL     1     -10.439  16.928  67.314  0.00  0.00    -0.007 A 
ATOM     11  C   UNL     1     -10.021  17.990  68.268  0.00  0.00    +0.032 C 
ENDBRANCH   2   4
BRANCH   1  12
ATOM     12  C   UNL     1     -12.171  14.639  71.205  0.00  0.00    +0.161 C 
BRANCH  12  13
ATOM     13  N   UNL     1     -12.829  15.699  71.903  0.00  0.00    -0.265 NA
BRANCH  13  15
ATOM     14  C   UNL     1     -12.494  15.800  74.346  0.00  0.00    +0.019 C 
ATOM     15  C   UNL     1     -12.107  16.273  72.982  0.00  0.00    +0.073 C 
ENDBRANCH  13  15
BRANCH  13  16
ATOM     16  C   UNL     1     -14.231  15.516  72.108  0.00  0.00    +0.073 C 
ATOM     17  C   UNL     1     -14.484  14.016  71.987  0.00  0.00    +0.019 C 
ENDBRANCH  13  16
ENDBRANCH  12  13
ENDBRANCH   1  12
TORSDOF 5
ENDMDL
MODEL 5
REMARK VINA RESULT:      -5.2      2.355      6.067
REMARK  Name = 
REMARK  5 active torsions:
REMARK  status: ('A' for Active; 'I' for Inactive)
REMARK    1  A    between atoms: C_2  and  N_3
REMARK    2  A    between atoms: N_3  and  C_4
REMARK    3  A    between atoms: N_3  and  C_6
REMARK    4  A    between atoms: C_6  and  C_7
REMARK    5  A    between atoms: N_9  and  C_10
REMARK                            x       y       z     vdW  Elec       q    Type
REMARK                         _______ _______ _______ _____ _____    ______ ____
ROOT
ATOM      1  C   UNL     1     -10.690  13.329  67.642  0.00  0.00    +0.262 C 
ATOM      2  N   UNL     1     -11.987  13.410  68.220  0.00  0.00    -0.179 NA
ATOM      3  O   UNL     1      -9.718  12.957  68.357  0.00  0.00    -0.271 OA
ENDROOT
BRANCH   2   4
ATOM      4  C   UNL     1     -12.043  13.881  69.572  0.00  0.00    +0.065 A 
ATOM      5  C   UNL     1     -12.102  15.246  69.802  0.00  0.00    -0.007 A 
ATOM      6  C   UNL     1     -11.316  16.138  68.897  0.00  0.00    +0.032 C 
ATOM      7  C   UNL     1     -12.633  15.733  70.986  0.00  0.00    -0.003 A 
ATOM      8  C   UNL     1     -13.357  14.870  71.798  0.00  0.00    -0.001 A 
ATOM      9  C   UNL     1     -13.002  13.531  71.700  0.00  0.00    -0.003 A 
ATOM     10  C   UNL     1     -12.351  13.019  70.609  0.00  0.00    -0.007 A 
ATOM     11  C   UNL     1     -12.121  11.562  70.422  0.00  0.00    +0.032 C 
ENDBRANCH   2   4
BRANCH   1  12
ATOM     12  C   UNL     1     -10.431  13.571  66.192  0.00  0.00    +0.161 C 
BRANCH  12  13
ATOM     13  N   UNL     1     -11.702  13.589  65.538  0.00  0.00    -0.265 NA
BRANCH  13  15
ATOM     14  C   UNL     1     -12.096  12.352  63.439  0.00  0.00    +0.019 C 
ATOM     15  C   UNL     1     -12.106  12.369  64.934  0.00  0.00    +0.073 C 
ENDBRANCH  13  15
BRANCH  13  16
ATOM     16  C   UNL     1     -11.995  14.782  64.809  0.00  0.00    +0.073 C 
ATOM     17  C   UNL     1     -10.796  15.705  65.008  0.00  0.00    +0.019 C 
ENDBRANCH  13  16
ENDBRANCH  12  13
ENDBRANCH   1  12
TORSDOF 5
ENDMDL
MODEL 6
REMARK VINA RESULT:      -5.1      4.051      5.284
REMARK  Name = 
REMARK  5 active torsions:
REMARK  status: ('A' for Active; 'I' for Inactive)
REMARK    1  A    between atoms: C_2  and  N_3
REMARK    2  A    between atoms: N_3  and  C_4
REMARK    3  A    between atoms: N_3  and  C_6
REMARK    4  A    between atoms: C_6  and  C_7
REMARK    5  A    between atoms: N_9  and  C_10
REMARK                            x       y       z     vdW  Elec       q    Type
REMARK                         _______ _______ _______ _____ _____    ______ ____
ROOT
ATOM      1  C   UNL     1     -10.171  15.857  66.353  0.00  0.00    +0.262 C 
ATOM      2  N   UNL     1      -9.539  16.919  65.648  0.00  0.00    -0.179 NA
ATOM      3  O   UNL     1     -10.827  16.115  67.400  0.00  0.00    -0.271 OA
ENDROOT
BRANCH   2   4
ATOM      4  C   UNL     1      -8.966  17.954  66.456  0.00  0.00    +0.065 A 
ATOM      5  C   UNL     1      -9.745  19.049  66.792  0.00  0.00    -0.007 A 
ATOM      6  C   UNL     1     -10.702  19.562  65.764  0.00  0.00    +0.032 C 
ATOM      7  C   UNL     1      -9.445  19.802  67.916  0.00  0.00    -0.003 A 
ATOM      8  C   UNL     1      -8.551  19.287  68.846  0.00  0.00    -0.001 A 
ATOM      9  C   UNL     1      -7.607  18.408  68.331  0.00  0.00    -0.003 A 
ATOM     10  C   UNL     1      -7.790  17.738  67.152  0.00  0.00    -0.007 A 
ATOM     11  C   UNL     1      -6.866  16.671  66.682  0.00  0.00    +0.032 C 
ENDBRANCH   2   4
BRANCH   1  12
ATOM     12  C   UNL     1     -10.180  14.447  65.860  0.00  0.00    +0.161 C 
BRANCH  12  13
ATOM     13  N   UNL     1     -11.550  14.059  65.729  0.00  0.00    -0.265 NA
BRANCH  13  15
ATOM     14  C   UNL     1     -10.893  12.269  67.296  0.00  0.00    +0.019 C 
ATOM     15  C   UNL     1     -11.913  12.844  66.367  0.00  0.00    +0.073 C 
ENDBRANCH  13  15
BRANCH  13  16
ATOM     16  C   UNL     1     -12.130  14.298  64.446  0.00  0.00    +0.073 C 
ATOM     17  C   UNL     1     -12.054  12.972  63.694  0.00  0.00    +0.019 C 
ENDBRANCH  13  16
ENDBRANCH  12  13
ENDBRANCH   1  12
TORSDOF 5
ENDMDL
MODEL 7
REMARK VINA RESULT:      -5.0      2.913      4.929
REMARK  Name = 
REMARK  5 active torsions:
REMARK  status: ('A' for Active; 'I' for Inactive)
REMARK    1  A    between atoms: C_2  and  N_3
REMARK    2  A    between atoms: N_3  and  C_4
REMARK    3  A    between atoms: N_3  and  C_6
REMARK    4  A    between atoms: C_6  and  C_7
REMARK    5  A    between atoms: N_9  and  C_10
REMARK                            x       y       z     vdW  Elec       q    Type
REMARK                         _______ _______ _______ _____ _____    ______ ____
ROOT
ATOM      1  C   UNL     1     -10.793  14.786  66.299  0.00  0.00    +0.262 C 
ATOM      2  N   UNL     1     -11.928  13.943  66.139  0.00  0.00    -0.179 NA
ATOM      3  O   UNL     1      -9.778  14.600  65.572  0.00  0.00    -0.271 OA
ENDROOT
BRANCH   2   4
ATOM      4  C   UNL     1     -11.650  12.564  65.866  0.00  0.00    +0.065 A 
ATOM      5  C   UNL     1     -11.403  12.179  64.558  0.00  0.00    -0.007 A 
ATOM      6  C   UNL     1     -12.184  12.852  63.476  0.00  0.00    +0.032 C 
ATOM      7  C   UNL     1     -10.675  11.029  64.294  0.00  0.00    -0.003 A 
ATOM      8  C   UNL     1      -9.964  10.437  65.328  0.00  0.00    -0.001 A 
ATOM      9  C   UNL     1     -10.484  10.648  66.598  0.00  0.00    -0.003 A 
ATOM     10  C   UNL     1     -11.320  11.692  66.888  0.00  0.00    -0.007 A 
ATOM     11  C   UNL     1     -11.742  12.024  68.275  0.00  0.00    +0.032 C 
ENDBRANCH   2   4
BRANCH   1  12
ATOM     12  C   UNL     1     -10.775  15.956  67.228  0.00  0.00    +0.161 C 
BRANCH  12  13
ATOM     13  N   UNL     1     -10.692  15.432  68.556  0.00  0.00    -0.265 NA
BRANCH  13  15
ATOM     14  C   UNL     1     -11.595  15.352  70.851  0.00  0.00    +0.019 C 
ATOM     15  C   UNL     1     -11.749  15.795  69.432  0.00  0.00    +0.073 C 
ENDBRANCH  13  15
BRANCH  13  16
ATOM     16  C   UNL     1      -9.381  15.413  69.122  0.00  0.00    +0.073 C 
ATOM     17  C   UNL     1      -8.710  16.711  68.681  0.00  0.00    +0.019 C 
ENDBRANCH  13  16
ENDBRANCH  12  13
ENDBRANCH   1  12
TORSDOF 5
ENDMDL
MODEL 8
REMARK VINA RESULT:      -4.9      2.729      5.508
REMARK  Name = 
REMARK  5 active torsions:
REMARK  status: ('A' for Active; 'I' for Inactive)
REMARK    1  A    between atoms: C_2  and  N_3
REMARK    2  A    between atoms: N_3  and  C_4
REMARK    3  A    between atoms: N_3  and  C_6
REMARK    4  A    between atoms: C_6  and  C_7
REMARK    5  A    between atoms: N_9  and  C_10
REMARK                            x       y       z     vdW  Elec       q    Type
REMARK                         _______ _______ _______ _____ _____    ______ ____
ROOT
ATOM      1  C   UNL     1      -9.837  15.467  66.510  0.00  0.00    +0.262 C 
ATOM      2  N   UNL     1     -11.240  15.231  66.501  0.00  0.00    -0.179 NA
ATOM      3  O   UNL     1      -9.046  14.486  66.583  0.00  0.00    -0.271 OA
ENDROOT
BRANCH   2   4
ATOM      4  C   UNL     1     -11.702  14.169  67.345  0.00  0.00    +0.065 A 
ATOM      5  C   UNL     1     -11.745  12.882  66.835  0.00  0.00    -0.007 A 
ATOM      6  C   UNL     1     -12.139  12.713  65.403  0.00  0.00    +0.032 C 
ATOM      7  C   UNL     1     -11.704  11.791  67.690  0.00  0.00    -0.003 A 
ATOM      8  C   UNL     1     -11.333  11.992  69.012  0.00  0.00    -0.001 A 
ATOM      9  C   UNL     1     -11.615  13.254  69.518  0.00  0.00    -0.003 A 
ATOM     10  C   UNL     1     -11.802  14.346  68.713  0.00  0.00    -0.007 A 
ATOM     11  C   UNL     1     -11.932  15.727  69.249  0.00  0.00    +0.032 C 
ENDBRANCH   2   4
BRANCH   1  12
ATOM     12  C   UNL     1      -9.242  16.826  66.340  0.00  0.00    +0.161 C 
BRANCH  12  13
ATOM     13  N   UNL     1      -9.445  17.527  67.569  0.00  0.00    -0.265 NA
BRANCH  13  15
ATOM     14  C   UNL     1     -10.509  19.189  66.086  0.00  0.00    +0.019 C 
ATOM     15  C   UNL     1     -10.131  18.767  67.469  0.00  0.00    +0.073 C 
ENDBRANCH  13  15
BRANCH  13  16
ATOM     16  C   UNL     1      -8.349  17.485  68.483  0.00  0.00    +0.073 C 
ATOM     17  C   UNL     1      -7.844  18.920  68.606  0.00  0.00    +0.019 C 
ENDBRANCH  13  16
ENDBRANCH  12  13
ENDBRANCH   1  12
TORSDOF 5
ENDMDL
MODEL 9
REMARK VINA RESULT:      -4.9      2.573      5.459
REMARK  Name = 
REMARK  5 active torsions:
REMARK  status: ('A' for Active; 'I' for Inactive)
REMARK    1  A    between atoms: C_2  and  N_3
REMARK    2  A    between atoms: N_3  and  C_4
REMARK    3  A    between atoms: N_3  and  C_6
REMARK    4  A    between atoms: C_6  and  C_7
REMARK    5  A    between atoms: N_9  and  C_10
REMARK                            x       y       z     vdW  Elec       q    Type
REMARK                         _______ _______ _______ _____ _____    ______ ____
ROOT
ATOM      1  C   UNL     1      -9.896  15.755  67.459  0.00  0.00    +0.262 C 
ATOM      2  N   UNL     1     -11.296  15.558  67.300  0.00  0.00    -0.179 NA
ATOM      3  O   UNL     1      -9.093  14.990  66.857  0.00  0.00    -0.271 OA
ENDROOT
BRANCH   2   4
ATOM      4  C   UNL     1     -11.733  14.196  67.223  0.00  0.00    +0.065 A 
ATOM      5  C   UNL     1     -11.765  13.573  65.986  0.00  0.00    -0.007 A 
ATOM      6  C   UNL     1     -12.174  14.394  64.805  0.00  0.00    +0.032 C 
ATOM      7  C   UNL     1     -11.698  12.192  65.897  0.00  0.00    -0.003 A 
ATOM      8  C   UNL     1     -11.313  11.468  67.018  0.00  0.00    -0.001 A 
ATOM      9  C   UNL     1     -11.605  12.068  68.235  0.00  0.00    -0.003 A 
ATOM     10  C   UNL     1     -11.817  13.415  68.362  0.00  0.00    -0.007 A 
ATOM     11  C   UNL     1     -11.960  14.086  69.681  0.00  0.00    +0.032 C 
ENDBRANCH   2   4
BRANCH   1  12
ATOM     12  C   UNL     1      -9.319  16.892  68.236  0.00  0.00    +0.161 C 
BRANCH  12  13
ATOM     13  N   UNL     1      -9.244  18.009  67.346  0.00  0.00    -0.265 NA
BRANCH  13  15
ATOM     14  C   UNL     1      -7.144  17.787  66.067  0.00  0.00    +0.019 C 
ATOM     15  C   UNL     1      -7.941  18.518  67.099  0.00  0.00    +0.073 C 
ENDBRANCH  13  15
BRANCH  13  16
ATOM     16  C   UNL     1     -10.282  18.978  67.495  0.00  0.00    +0.073 C 
ATOM     17  C   UNL     1     -10.484  19.598  66.115  0.00  0.00    +0.019 C 
ENDBRANCH  13  16
ENDBRANCH  12  13
ENDBRANCH   1  12
TORSDOF 5
ENDMDL
