MODEL 1
REMARK VINA RESULT:      -7.1      0.000      0.000
REMARK  Name = 
REMARK  6 active torsions:
REMARK  status: ('A' for Active; 'I' for Inactive)
REMARK    1  A    between atoms: C_5  and  C_6
REMARK    2  A    between atoms: C_6  and  S_7
REMARK    3  A    between atoms: S_7  and  C_8
REMARK    4  A    between atoms: C_8  and  C_9
REMARK    5  A    between atoms: C_8  and  C_15
REMARK    6  A    between atoms: C_9  and  N_10
REMARK                            x       y       z     vdW  Elec       q    Type
REMARK                         _______ _______ _______ _____ _____    ______ ____
ROOT
ATOM      1  C   UNL     1     -10.061  14.742  66.923  0.00  0.00    +0.093 C 
ENDROOT
BRANCH   1   2
ATOM      2  C   UNL     1      -9.265  16.085  66.790  0.00  0.00    +0.000 A 
ATOM      3  C   UNL     1      -8.499  16.402  67.905  0.00  0.00    +0.055 A 
ATOM      4 CL   UNL     1      -8.232  15.232  69.192  0.00  0.00    -0.083 Cl
ATOM      5  C   UNL     1      -8.141  17.732  68.076  0.00  0.00    +0.022 A 
ATOM      6  C   UNL     1      -8.707  18.728  67.299  0.00  0.00    +0.058 A 
ATOM      7 CL   UNL     1      -8.235  20.400  67.544  0.00  0.00    -0.082 Cl
ATOM      8  C   UNL     1      -9.816  18.412  66.536  0.00  0.00    +0.011 A 
ATOM      9  C   UNL     1     -10.026  17.099  66.218  0.00  0.00    -0.002 A 
ENDBRANCH   1   2
BRANCH   1  10
ATOM     10  S   UNL     1     -11.365  15.469  68.124  0.00  0.00    -0.130 S 
BRANCH  10  11
ATOM     11  C   UNL     1     -11.860  14.051  69.137  0.00  0.00    +0.084 C 
BRANCH  11  16
ATOM     12 CL   UNL     1     -12.409  15.622  74.751  0.00  0.00    -0.082 Cl
ATOM     13  C   UNL     1     -12.516  15.365  73.101  0.00  0.00    +0.058 A 
ATOM     14  C   UNL     1     -13.210  14.264  72.614  0.00  0.00    +0.011 A 
ATOM     15  C   UNL     1     -13.115  13.891  71.284  0.00  0.00    -0.003 A 
ATOM     16  C   UNL     1     -12.148  14.522  70.512  0.00  0.00    -0.011 A 
ATOM     17  C   UNL     1     -11.714  15.794  70.855  0.00  0.00    -0.003 A 
ATOM     18  C   UNL     1     -11.959  16.200  72.160  0.00  0.00    +0.011 A 
ENDBRANCH  11  16
ENDBRANCH  10  11
ENDBRANCH   1  10
BRANCH   1  19
ATOM     19  C   UNL     1     -10.951  14.994  65.622  0.00  0.00    +0.123 C 
BRANCH  19  20
ATOM     20  N   UNL     1     -11.346  13.692  65.153  0.00  0.00    -0.307 N 
ATOM     21  C   UNL     1     -12.571  13.151  65.347  0.00  0.00    +0.179 A 
ATOM     22  N   UNL     1     -12.913  12.424  64.254  0.00  0.00    -0.222 NA
ATOM     23  C   UNL     1     -11.785  12.224  63.533  0.00  0.00    +0.119 A 
ATOM     24  C   UNL     1     -10.780  12.896  64.218  0.00  0.00    +0.098 A 
ENDBRANCH  19  20
ENDBRANCH   1  19
TORSDOF 6
ENDMDL
MODEL 2
REMARK VINA RESULT:      -6.9      2.800      4.984
REMARK  Name = 
REMARK  6 active torsions:
REMARK  status: ('A' for Active; 'I' for Inactive)
REMARK    1  A    between atoms: C_5  and  C_6
REMARK    2  A    between atoms: C_6  and  S_7
REMARK    3  A    between atoms: S_7  and  C_8
REMARK    4  A    between atoms: C_8  and  C_9
REMARK    5  A    between atoms: C_8  and  C_15
REMARK    6  A    between atoms: C_9  and  N_10
REMARK                            x       y       z     vdW  Elec       q    Type
REMARK                         _______ _______ _______ _____ _____    ______ ____
ROOT
ATOM      1  C   UNL     1     -10.633  15.337  66.869  0.00  0.00    +0.093 C 
ENDROOT
BRANCH   1   2
ATOM      2  C   UNL     1     -10.222  14.019  66.126  0.00  0.00    +0.000 A 
ATOM      3  C   UNL     1     -11.296  13.292  65.628  0.00  0.00    +0.055 A 
ATOM      4 CL   UNL     1     -12.918  13.973  65.584  0.00  0.00    -0.083 Cl
ATOM      5  C   UNL     1     -11.091  11.942  65.377  0.00  0.00    +0.022 A 
ATOM      6  C   UNL     1      -9.944  11.303  65.812  0.00  0.00    +0.058 A 
ATOM      7 CL   UNL     1      -9.718   9.595  65.481  0.00  0.00    -0.082 Cl
ATOM      8  C   UNL     1      -9.133  11.960  66.720  0.00  0.00    +0.011 A 
ATOM      9  C   UNL     1      -9.223  13.322  66.796  0.00  0.00    -0.002 A 
ENDBRANCH   1   2
BRANCH   1  10
ATOM     10  S   UNL     1     -10.309  14.621  68.615  0.00  0.00    -0.130 S 
BRANCH  10  11
ATOM     11  C   UNL     1     -11.932  14.010  69.142  0.00  0.00    +0.084 C 
BRANCH  11  16
ATOM     12 CL   UNL     1     -12.419  15.635  74.746  0.00  0.00    -0.082 Cl
ATOM     13  C   UNL     1     -12.542  15.363  73.100  0.00  0.00    +0.058 A 
ATOM     14  C   UNL     1     -13.248  14.263  72.629  0.00  0.00    +0.011 A 
ATOM     15  C   UNL     1     -13.168  13.877  71.302  0.00  0.00    -0.003 A 
ATOM     16  C   UNL     1     -12.204  14.495  70.515  0.00  0.00    -0.011 A 
ATOM     17  C   UNL     1     -11.759  15.768  70.843  0.00  0.00    -0.003 A 
ATOM     18  C   UNL     1     -11.989  16.187  72.146  0.00  0.00    +0.011 A 
ENDBRANCH  11  16
ENDBRANCH  10  11
ENDBRANCH   1  10
BRANCH   1  19
ATOM     19  C   UNL     1      -9.188  16.004  66.748  0.00  0.00    +0.123 C 
BRANCH  19  20
ATOM     20  N   UNL     1      -9.364  17.394  67.079  0.00  0.00    -0.307 N 
ATOM     21  C   UNL     1     -10.379  18.163  66.624  0.00  0.00    +0.179 A 
ATOM     22  N   UNL     1     -10.749  19.032  67.598  0.00  0.00    -0.222 NA
ATOM     23  C   UNL     1      -9.759  19.047  68.523  0.00  0.00    +0.119 A 
ATOM     24  C   UNL     1      -8.819  18.125  68.077  0.00  0.00    +0.098 A 
ENDBRANCH  19  20
ENDBRANCH   1  19
TORSDOF 6
ENDMDL
MODEL 3
REMARK VINA RESULT:      -6.7      3.000      6.776
REMARK  Name = 
REMARK  6 active torsions:
REMARK  status: ('A' for Active; 'I' for Inactive)
REMARK    1  A    between atoms: C_5  and  C_6
REMARK    2  A    between atoms: C_6  and  S_7
REMARK    3  A    between atoms: S_7  and  C_8
REMARK    4  A    between atoms: C_8  and  C_9
REMARK    5  A    between atoms: C_8  and  C_15
REMARK    6  A    between atoms: C_9  and  N_10
REMARK                            x       y       z     vdW  Elec       q    Type
REMARK                         _______ _______ _______ _____ _____    ______ ____
ROOT
ATOM      1  C   UNL     1     -11.315  14.116  69.652  0.00  0.00    +0.093 C 
ENDROOT
BRANCH   1   2
ATOM      2  C   UNL     1     -11.964  13.572  68.333  0.00  0.00    +0.000 A 
ATOM      3  C   UNL     1     -11.528  12.304  67.971  0.00  0.00    +0.055 A 
ATOM      4 CL   UNL     1     -10.580  11.313  69.072  0.00  0.00    -0.083 Cl
ATOM      5  C   UNL     1     -11.674  11.936  66.640  0.00  0.00    +0.022 A 
ATOM      6  C   UNL     1     -12.025  12.867  65.678  0.00  0.00    +0.058 A 
ATOM      7 CL   UNL     1     -12.196  12.369  64.004  0.00  0.00    -0.082 Cl
ATOM      8  C   UNL     1     -11.975  14.207  66.015  0.00  0.00    +0.011 A 
ATOM      9  C   UNL     1     -12.037  14.541  67.339  0.00  0.00    -0.002 A 
ENDBRANCH   1   2
BRANCH   1  10
ATOM     10  S   UNL     1      -9.856  14.968  68.751  0.00  0.00    -0.130 S 
BRANCH  10  11
ATOM     11  C   UNL     1     -10.079  16.726  69.129  0.00  0.00    +0.084 C 
BRANCH  11  16
ATOM     12 CL   UNL     1      -7.045  20.085  65.416  0.00  0.00    -0.082 Cl
ATOM     13  C   UNL     1      -8.076  19.033  66.208  0.00  0.00    +0.058 A 
ATOM     14  C   UNL     1      -9.250  19.509  66.779  0.00  0.00    +0.011 A 
ATOM     15  C   UNL     1      -9.997  18.722  67.639  0.00  0.00    -0.003 A 
ATOM     16  C   UNL     1      -9.427  17.530  68.070  0.00  0.00    -0.011 A 
ATOM     17  C   UNL     1      -8.473  16.899  67.285  0.00  0.00    -0.003 A 
ATOM     18  C   UNL     1      -7.845  17.681  66.325  0.00  0.00    +0.011 A 
ENDBRANCH  11  16
ENDBRANCH  10  11
ENDBRANCH   1  10
BRANCH   1  19
ATOM     19  C   UNL     1     -12.211  15.437  69.696  0.00  0.00    +0.123 C 
BRANCH  19  20
ATOM     20  N   UNL     1     -12.764  15.498  71.024  0.00  0.00    -0.307 N 
ATOM     21  C   UNL     1     -13.888  14.852  71.411  0.00  0.00    +0.179 A 
ATOM     22  N   UNL     1     -13.739  14.434  72.693  0.00  0.00    -0.222 NA
ATOM     23  C   UNL     1     -12.685  15.104  73.217  0.00  0.00    +0.119 A 
ATOM     24  C   UNL     1     -12.196  15.895  72.184  0.00  0.00    +0.098 A 
ENDBRANCH  19  20
ENDBRANCH   1  19
TORSDOF 6
ENDMDL
MODEL 4
REMARK VINA RESULT:      -6.7      3.355      4.717
REMARK  Name = 
REMARK  6 active torsions:
REMARK  status: ('A' for Active; 'I' for Inactive)
REMARK    1  A    between atoms: C_5  and  C_6
REMARK    2  A    between atoms: C_6  and  S_7
REMARK    3  A    between atoms: S_7  and  C_8
REMARK    4  A    between atoms: C_8  and  C_9
REMARK    5  A    between atoms: C_8  and  C_15
REMARK    6  A    between atoms: C_9  and  N_10
REMARK                            x       y       z     vdW  Elec       q    Type
REMARK                         _______ _______ _______ _____ _____    ______ ____
ROOT
ATOM      1  C   UNL     1     -11.032  13.720  67.427  0.00  0.00    +0.093 C 
ENDROOT
BRANCH   1   2
ATOM      2  C   UNL     1     -11.667  14.556  68.591  0.00  0.00    +0.000 A 
ATOM      3  C   UNL     1     -10.982  15.729  68.883  0.00  0.00    +0.055 A 
ATOM      4 CL   UNL     1      -9.715  16.336  67.824  0.00  0.00    -0.083 Cl
ATOM      5  C   UNL     1     -11.175  16.284  70.141  0.00  0.00    +0.022 A 
ATOM      6  C   UNL     1     -11.837  15.583  71.135  0.00  0.00    +0.058 A 
ATOM      7 CL   UNL     1     -12.059  16.311  72.715  0.00  0.00    -0.082 Cl
ATOM      8  C   UNL     1     -12.072  14.235  70.939  0.00  0.00    +0.011 A 
ATOM      9  C   UNL     1     -12.073  13.760  69.656  0.00  0.00    -0.002 A 
ENDBRANCH   1   2
BRANCH   1  10
ATOM     10  S   UNL     1     -11.756  12.056  68.038  0.00  0.00    -0.130 S 
BRANCH  10  11
ATOM     11  C   UNL     1     -10.299  11.000  68.248  0.00  0.00    +0.084 C 
BRANCH  11  16
ATOM     12 CL   UNL     1     -10.954   7.512  72.905  0.00  0.00    -0.082 Cl
ATOM     13  C   UNL     1     -10.657   8.727  71.795  0.00  0.00    +0.058 A 
ATOM     14  C   UNL     1     -11.680   9.590  71.421  0.00  0.00    +0.011 A 
ATOM     15  C   UNL     1     -11.536  10.443  70.339  0.00  0.00    -0.003 A 
ATOM     16  C   UNL     1     -10.427  10.255  69.522  0.00  0.00    -0.011 A 
ATOM     17  C   UNL     1      -9.278   9.676  70.042  0.00  0.00    -0.003 A 
ATOM     18  C   UNL     1      -9.429   8.949  71.216  0.00  0.00    +0.011 A 
ENDBRANCH  11  16
ENDBRANCH  10  11
ENDBRANCH   1  10
BRANCH   1  19
ATOM     19  C   UNL     1     -12.227  13.998  66.406  0.00  0.00    +0.123 C 
BRANCH  19  20
ATOM     20  N   UNL     1     -11.793  13.479  65.136  0.00  0.00    -0.307 N 
ATOM     21  C   UNL     1     -10.525  13.565  64.670  0.00  0.00    +0.179 A 
ATOM     22  N   UNL     1     -10.231  12.437  63.977  0.00  0.00    -0.222 NA
ATOM     23  C   UNL     1     -11.400  11.806  63.715  0.00  0.00    +0.119 A 
ATOM     24  C   UNL     1     -12.384  12.581  64.316  0.00  0.00    +0.098 A 
ENDBRANCH  19  20
ENDBRANCH   1  19
TORSDOF 6
ENDMDL
MODEL 5
REMARK VINA RESULT:      -6.7      1.594      5.339
REMARK  Name = 
REMARK  6 active torsions:
REMARK  status: ('A' for Active; 'I' for Inactive)
REMARK    1  A    between atoms: C_5  and  C_6
REMARK    2  A    between atoms: C_6  and  S_7
REMARK    3  A    between atoms: S_7  and  C_8
REMARK    4  A    between atoms: C_8  and  C_9
REMARK    5  A    between atoms: C_8  and  C_15
REMARK    6  A    between atoms: C_9  and  N_10
REMARK                            x       y       z     vdW  Elec       q    Type
REMARK                         _______ _______ _______ _____ _____    ______ ____
ROOT
ATOM      1  C   UNL     1     -11.108  14.308  67.356  0.00  0.00    +0.093 C 
ENDROOT
BRANCH   1   2
ATOM      2  C   UNL     1     -11.999  14.477  68.635  0.00  0.00    +0.000 A 
ATOM      3  C   UNL     1     -11.815  15.685  69.296  0.00  0.00    +0.055 A 
ATOM      4 CL   UNL     1     -10.896  16.996  68.567  0.00  0.00    -0.083 Cl
ATOM      5  C   UNL     1     -12.186  15.743  70.633  0.00  0.00    +0.022 A 
ATOM      6  C   UNL     1     -12.512  14.594  71.333  0.00  0.00    +0.058 A 
ATOM      7 CL   UNL     1     -12.973  14.703  73.022  0.00  0.00    -0.082 Cl
ATOM      8  C   UNL     1     -12.211  13.372  70.760  0.00  0.00    +0.011 A 
ATOM      9  C   UNL     1     -12.049  13.319  69.403  0.00  0.00    -0.002 A 
ENDBRANCH   1   2
BRANCH   1  10
ATOM     10  S   UNL     1      -9.596  13.642  68.324  0.00  0.00    -0.130 S 
BRANCH  10  11
ATOM     11  C   UNL     1      -8.183  14.091  67.283  0.00  0.00    +0.084 C 
BRANCH  11  16
ATOM     12 CL   UNL     1      -7.789  19.874  68.111  0.00  0.00    -0.082 Cl
ATOM     13  C   UNL     1      -7.583  18.244  67.796  0.00  0.00    +0.058 A 
ATOM     14  C   UNL     1      -7.872  17.738  66.535  0.00  0.00    +0.011 A 
ATOM     15  C   UNL     1      -7.944  16.374  66.311  0.00  0.00    -0.003 A 
ATOM     16  C   UNL     1      -7.925  15.543  67.425  0.00  0.00    -0.011 A 
ATOM     17  C   UNL     1      -7.314  15.972  68.594  0.00  0.00    -0.003 A 
ATOM     18  C   UNL     1      -7.118  17.340  68.725  0.00  0.00    +0.011 A 
ENDBRANCH  11  16
ENDBRANCH  10  11
ENDBRANCH   1  10
BRANCH   1  19
ATOM     19  C   UNL     1     -11.669  12.855  67.005  0.00  0.00    +0.123 C 
BRANCH  19  20
ATOM     20  N   UNL     1     -12.228  12.955  65.682  0.00  0.00    -0.307 N 
ATOM     21  C   UNL     1     -12.784  14.078  65.172  0.00  0.00    +0.179 A 
ATOM     22  N   UNL     1     -12.493  14.156  63.849  0.00  0.00    -0.222 NA
ATOM     23  C   UNL     1     -12.058  12.934  63.459  0.00  0.00    +0.119 A 
ATOM     24  C   UNL     1     -12.064  12.151  64.607  0.00  0.00    +0.098 A 
ENDBRANCH  19  20
ENDBRANCH   1  19
TORSDOF 6
ENDMDL
MODEL 6
REMARK VINA RESULT:      -6.6      3.345      5.093
REMARK  Name = 
REMARK  6 active torsions:
REMARK  status: ('A' for Active; 'I' for Inactive)
REMARK    1  A    between atoms: C_5  and  C_6
REMARK    2  A    between atoms: C_6  and  S_7
REMARK    3  A    between atoms: S_7  and  C_8
REMARK    4  A    between atoms: C_8  and  C_9
REMARK    5  A    between atoms: C_8  and  C_15
REMARK    6  A    between atoms: C_9  and  N_10
REMARK                            x       y       z     vdW  Elec       q    Type
REMARK                         _______ _______ _______ _____ _____    ______ ____
ROOT
ATOM      1  C   UNL     1     -11.505  11.643  67.735  0.00  0.00    +0.093 C 
ENDROOT
BRANCH   1   2
ATOM      2  C   UNL     1     -10.687  10.506  68.438  0.00  0.00    +0.000 A 
ATOM      3  C   UNL     1     -11.195  10.125  69.673  0.00  0.00    +0.055 A 
ATOM      4 CL   UNL     1     -12.778  10.668  70.218  0.00  0.00    -0.083 Cl
ATOM      5  C   UNL     1     -10.328   9.489  70.551  0.00  0.00    +0.022 A 
ATOM      6  C   UNL     1      -8.968   9.439  70.299  0.00  0.00    +0.058 A 
ATOM      7 CL   UNL     1      -7.899   8.632  71.431  0.00  0.00    -0.082 Cl
ATOM      8  C   UNL     1      -8.458  10.251  69.302  0.00  0.00    +0.011 A 
ATOM      9  C   UNL     1      -9.314  10.697  68.333  0.00  0.00    -0.002 A 
ENDBRANCH   1   2
BRANCH   1  10
ATOM     10  S   UNL     1     -10.734  13.044  68.790  0.00  0.00    -0.130 S 
BRANCH  10  11
ATOM     11  C   UNL     1     -12.037  14.302  68.859  0.00  0.00    +0.084 C 
BRANCH  11  16
ATOM     12 CL   UNL     1     -12.361  15.456  74.590  0.00  0.00    -0.082 Cl
ATOM     13  C   UNL     1     -12.524  15.331  72.930  0.00  0.00    +0.058 A 
ATOM     14  C   UNL     1     -13.279  14.301  72.382  0.00  0.00    +0.011 A 
ATOM     15  C   UNL     1     -13.237  14.028  71.026  0.00  0.00    -0.003 A 
ATOM     16  C   UNL     1     -12.265  14.677  70.273  0.00  0.00    -0.011 A 
ATOM     17  C   UNL     1     -11.768  15.900  70.699  0.00  0.00    -0.003 A 
ATOM     18  C   UNL     1     -11.959  16.214  72.038  0.00  0.00    +0.011 A 
ENDBRANCH  11  16
ENDBRANCH  10  11
ENDBRANCH   1  10
BRANCH   1  19
ATOM     19  C   UNL     1     -10.468  11.819  66.534  0.00  0.00    +0.123 C 
BRANCH  19  20
ATOM     20  N   UNL     1     -11.113  12.679  65.576  0.00  0.00    -0.307 N 
ATOM     21  C   UNL     1     -12.435  12.647  65.291  0.00  0.00    +0.179 A 
ATOM     22  N   UNL     1     -12.867  13.910  65.052  0.00  0.00    -0.222 NA
ATOM     23  C   UNL     1     -11.772  14.680  64.848  0.00  0.00    +0.119 A 
ATOM     24  C   UNL     1     -10.684  13.834  65.019  0.00  0.00    +0.098 A 
ENDBRANCH  19  20
ENDBRANCH   1  19
TORSDOF 6
ENDMDL
MODEL 7
REMARK VINA RESULT:      -6.6      3.307      5.412
REMARK  Name = 
REMARK  6 active torsions:
REMARK  status: ('A' for Active; 'I' for Inactive)
REMARK    1  A    between atoms: C_5  and  C_6
REMARK    2  A    between atoms: C_6  and  S_7
REMARK    3  A    between atoms: S_7  and  C_8
REMARK    4  A    between atoms: C_8  and  C_9
REMARK    5  A    between atoms: C_8  and  C_15
REMARK    6  A    between atoms: C_9  and  N_10
REMARK                            x       y       z     vdW  Elec       q    Type
REMARK                         _______ _______ _______ _____ _____    ______ ____
ROOT
ATOM      1  C   UNL     1     -10.575  15.620  66.870  0.00  0.00    +0.093 C 
ENDROOT
BRANCH   1   2
ATOM      2  C   UNL     1     -10.106  14.275  66.215  0.00  0.00    +0.000 A 
ATOM      3  C   UNL     1     -11.148  13.443  65.825  0.00  0.00    +0.055 A 
ATOM      4 CL   UNL     1     -12.813  14.012  65.802  0.00  0.00    -0.083 Cl
ATOM      5  C   UNL     1     -10.862  12.093  65.671  0.00  0.00    +0.022 A 
ATOM      6  C   UNL     1      -9.657  11.566  66.102  0.00  0.00    +0.058 A 
ATOM      7 CL   UNL     1      -9.329   9.855  65.895  0.00  0.00    -0.082 Cl
ATOM      8  C   UNL     1      -8.857  12.345  66.917  0.00  0.00    +0.011 A 
ATOM      9  C   UNL     1      -9.035  13.700  66.890  0.00  0.00    -0.002 A 
ENDBRANCH   1   2
BRANCH   1  10
ATOM     10  S   UNL     1     -10.322  14.998  68.664  0.00  0.00    -0.130 S 
BRANCH  10  11
ATOM     11  C   UNL     1     -12.003  14.919  69.337  0.00  0.00    +0.084 C 
BRANCH  11  16
ATOM     12 CL   UNL     1     -13.367   9.616  71.410  0.00  0.00    -0.082 Cl
ATOM     13  C   UNL     1     -12.700  11.091  70.989  0.00  0.00    +0.058 A 
ATOM     14  C   UNL     1     -13.010  12.228  71.725  0.00  0.00    +0.011 A 
ATOM     15  C   UNL     1     -12.673  13.491  71.266  0.00  0.00    -0.003 A 
ATOM     16  C   UNL     1     -12.208  13.591  69.960  0.00  0.00    -0.011 A 
ATOM     17  C   UNL     1     -11.587  12.503  69.364  0.00  0.00    -0.003 A 
ATOM     18  C   UNL     1     -11.825  11.262  69.941  0.00  0.00    +0.011 A 
ENDBRANCH  11  16
ENDBRANCH  10  11
ENDBRANCH   1  10
BRANCH   1  19
ATOM     19  C   UNL     1      -9.138  16.309  66.784  0.00  0.00    +0.123 C 
BRANCH  19  20
ATOM     20  N   UNL     1      -9.352  17.708  67.042  0.00  0.00    -0.307 N 
ATOM     21  C   UNL     1     -10.441  18.401  66.635  0.00  0.00    +0.179 A 
ATOM     22  N   UNL     1     -10.766  19.315  67.583  0.00  0.00    -0.222 NA
ATOM     23  C   UNL     1      -9.701  19.434  68.411  0.00  0.00    +0.119 A 
ATOM     24  C   UNL     1      -8.759  18.527  67.940  0.00  0.00    +0.098 A 
ENDBRANCH  19  20
ENDBRANCH   1  19
TORSDOF 6
ENDMDL
MODEL 8
REMARK VINA RESULT:      -6.5      4.321      6.280
REMARK  Name = 
REMARK  6 active torsions:
REMARK  status: ('A' for Active; 'I' for Inactive)
REMARK    1  A    between atoms: C_5  and  C_6
REMARK    2  A    between atoms: C_6  and  S_7
REMARK    3  A    between atoms: S_7  and  C_8
REMARK    4  A    between atoms: C_8  and  C_9
REMARK    5  A    between atoms: C_8  and  C_15
REMARK    6  A    between atoms: C_9  and  N_10
REMARK                            x       y       z     vdW  Elec       q    Type
REMARK                         _______ _______ _______ _____ _____    ______ ____
ROOT
ATOM      1  C   UNL     1     -11.654  12.672  67.064  0.00  0.00    +0.093 C 
ENDROOT
BRANCH   1   2
ATOM      2  C   UNL     1     -10.696  12.285  65.885  0.00  0.00    +0.000 A 
ATOM      3  C   UNL     1     -11.070  12.815  64.657  0.00  0.00    +0.055 A 
ATOM      4 CL   UNL     1     -12.320  14.046  64.534  0.00  0.00    -0.083 Cl
ATOM      5  C   UNL     1     -10.586  12.187  63.517  0.00  0.00    +0.022 A 
ATOM      6  C   UNL     1      -9.949  10.960  63.596  0.00  0.00    +0.058 A 
ATOM      7 CL   UNL     1      -9.353  10.191  62.136  0.00  0.00    -0.082 Cl
ATOM      8  C   UNL     1     -10.033  10.254  64.782  0.00  0.00    +0.011 A 
ATOM      9  C   UNL     1     -10.317  10.948  65.926  0.00  0.00    -0.002 A 
ENDBRANCH   1   2
BRANCH   1  10
ATOM     10  S   UNL     1     -11.356  11.044  68.027  0.00  0.00    -0.130 S 
BRANCH  10  11
ATOM     11  C   UNL     1     -11.835  11.451  69.727  0.00  0.00    +0.084 C 
BRANCH  11  16
ATOM     12 CL   UNL     1     -10.576   7.297  73.657  0.00  0.00    -0.082 Cl
ATOM     13  C   UNL     1     -11.034   8.232  72.347  0.00  0.00    +0.058 A 
ATOM     14  C   UNL     1     -10.093   8.596  71.392  0.00  0.00    +0.011 A 
ATOM     15  C   UNL     1     -10.379   9.557  70.437  0.00  0.00    -0.003 A 
ATOM     16  C   UNL     1     -11.551  10.286  70.597  0.00  0.00    -0.011 A 
ATOM     17  C   UNL     1     -12.616   9.733  71.292  0.00  0.00    -0.003 A 
ATOM     18  C   UNL     1     -12.321   8.668  72.133  0.00  0.00    +0.011 A 
ENDBRANCH  11  16
ENDBRANCH  10  11
ENDBRANCH   1  10
BRANCH   1  19
ATOM     19  C   UNL     1     -10.540  13.486  67.868  0.00  0.00    +0.123 C 
BRANCH  19  20
ATOM     20  N   UNL     1     -10.970  14.860  67.859  0.00  0.00    -0.307 N 
ATOM     21  C   UNL     1     -11.708  15.434  68.837  0.00  0.00    +0.179 A 
ATOM     22  N   UNL     1     -11.309  16.721  68.996  0.00  0.00    -0.222 NA
ATOM     23  C   UNL     1     -10.576  17.054  67.907  0.00  0.00    +0.119 A 
ATOM     24  C   UNL     1     -10.524  15.906  67.127  0.00  0.00    +0.098 A 
ENDBRANCH  19  20
ENDBRANCH   1  19
TORSDOF 6
ENDMDL
MODEL 9
REMARK VINA RESULT:      -6.3      3.628      5.342
REMARK  Name = 
REMARK  6 active torsions:
REMARK  status: ('A' for Active; 'I' for Inactive)
REMARK    1  A    between atoms: C_5  and  C_6
REMARK    2  A    between atoms: C_6  and  S_7
REMARK    3  A    between atoms: S_7  and  C_8
REMARK    4  A    between atoms: C_8  and  C_9
REMARK    5  A    between atoms: C_8  and  C_15
REMARK    6  A    between atoms: C_9  and  N_10
REMARK                            x       y       z     vdW  Elec       q    Type
REMARK                         _______ _______ _______ _____ _____    ______ ____
ROOT
ATOM      1  C   UNL     1     -11.030  13.646  68.561  0.00  0.00    +0.093 C 
ENDROOT
BRANCH   1   2
ATOM      2  C   UNL     1     -11.877  14.413  69.634  0.00  0.00    +0.000 A 
ATOM      3  C   UNL     1     -11.307  15.607  70.057  0.00  0.00    +0.055 A 
ATOM      4 CL   UNL     1      -9.927  16.308  69.220  0.00  0.00    -0.083 Cl
ATOM      5  C   UNL     1     -11.717  16.110  71.284  0.00  0.00    +0.022 A 
ATOM      6  C   UNL     1     -12.485  15.346  72.146  0.00  0.00    +0.058 A 
ATOM      7 CL   UNL     1     -12.982  16.011  73.692  0.00  0.00    -0.082 Cl
ATOM      8  C   UNL     1     -12.616  13.995  71.883  0.00  0.00    +0.011 A 
ATOM      9  C   UNL     1     -12.398  13.564  70.604  0.00  0.00    -0.002 A 
ENDBRANCH   1   2
BRANCH   1  10
ATOM     10  S   UNL     1     -11.720  11.925  69.039  0.00  0.00    -0.130 S 
BRANCH  10  11
ATOM     11  C   UNL     1     -10.274  10.837  68.951  0.00  0.00    +0.084 C 
BRANCH  11  16
ATOM     12 CL   UNL     1     -10.298   7.373  73.671  0.00  0.00    -0.082 Cl
ATOM     13  C   UNL     1     -10.475   8.125  72.187  0.00  0.00    +0.058 A 
ATOM     14  C   UNL     1      -9.508   7.958  71.205  0.00  0.00    +0.011 A 
ATOM     15  C   UNL     1      -9.499   8.748  70.068  0.00  0.00    -0.003 A 
ATOM     16  C   UNL     1     -10.356   9.842  70.045  0.00  0.00    -0.011 A 
ATOM     17  C   UNL     1     -11.514   9.826  70.809  0.00  0.00    -0.003 A 
ATOM     18  C   UNL     1     -11.553   8.913  71.855  0.00  0.00    +0.011 A 
ENDBRANCH  11  16
ENDBRANCH  10  11
ENDBRANCH   1  10
BRANCH   1  19
ATOM     19  C   UNL     1     -12.085  13.871  67.384  0.00  0.00    +0.123 C 
BRANCH  19  20
ATOM     20  N   UNL     1     -11.478  13.326  66.198  0.00  0.00    -0.307 N 
ATOM     21  C   UNL     1     -10.145  13.288  65.972  0.00  0.00    +0.179 A 
ATOM     22  N   UNL     1      -9.840  12.145  65.309  0.00  0.00    -0.222 NA
ATOM     23  C   UNL     1     -10.998  11.639  64.821  0.00  0.00    +0.119 A 
ATOM     24  C   UNL     1     -11.995  12.503  65.258  0.00  0.00    +0.098 A 
ENDBRANCH  19  20
ENDBRANCH   1  19
TORSDOF 6
ENDMDL
