MODEL 1
REMARK VINA RESULT:      -7.1      0.000      0.000
REMARK  Name = 
REMARK  1 active torsions:
REMARK  status: ('A' for Active; 'I' for Inactive)
REMARK    1  A    between atoms: N_10  and  C_11
REMARK                            x       y       z     vdW  Elec       q    Type
REMARK                         _______ _______ _______ _____ _____    ______ ____
ROOT
ATOM      1  N   UNL     1     -13.281  13.366  72.544  0.00  0.00    -0.128 NA
ATOM      2  C   UNL     1     -12.926  12.515  71.729  0.00  0.00    +0.094 A 
ATOM      3  C   UNL     1     -12.298  12.896  70.548  0.00  0.00    +0.075 A 
ATOM      4  C   UNL     1     -12.130  14.180  69.852  0.00  0.00    +0.257 C 
ATOM      5  N   UNL     1     -11.350  13.997  68.661  0.00  0.00    -0.216 N 
ATOM      6  C   UNL     1     -11.385  12.569  68.484  0.00  0.00    +0.255 C 
ATOM      7  O   UNL     1     -11.124  11.943  67.408  0.00  0.00    -0.269 OA
ATOM      8  O   UNL     1     -12.926  15.125  70.146  0.00  0.00    -0.269 OA
ATOM      9  C   UNL     1     -11.870  11.908  69.671  0.00  0.00    +0.060 A 
ATOM     10  C   UNL     1     -12.051  10.561  69.968  0.00  0.00    +0.005 A 
ATOM     11  C   UNL     1     -12.935  10.215  70.984  0.00  0.00    +0.002 A 
ATOM     12  C   UNL     1     -13.267  11.177  71.894  0.00  0.00    +0.018 A 
ENDROOT
BRANCH   5  13
ATOM     13  C   UNL     1     -11.689  14.841  67.369  0.00  0.00    +0.162 C 
ATOM     14  C   UNL     1     -10.582  15.981  67.631  0.00  0.00    +0.266 C 
ATOM     15  O   UNL     1     -10.397  16.381  68.769  0.00  0.00    -0.271 OA
ATOM     16  N   UNL     1     -10.541  16.828  66.473  0.00  0.00    -0.143 NA
ATOM     17  C   UNL     1     -10.745  16.171  65.216  0.00  0.00    +0.248 C 
ATOM     18  O   UNL     1     -11.143  16.793  64.185  0.00  0.00    -0.273 OA
ATOM     19  C   UNL     1     -10.619  14.693  65.091  0.00  0.00    +0.089 C 
ATOM     20  C   UNL     1     -10.632  14.009  66.423  0.00  0.00    +0.039 C 
ENDBRANCH   5  13
TORSDOF 1
ENDMDL
MODEL 2
REMARK VINA RESULT:      -7.1      4.375      6.084
REMARK  Name = 
REMARK  1 active torsions:
REMARK  status: ('A' for Active; 'I' for Inactive)
REMARK    1  A    between atoms: N_10  and  C_11
REMARK                            x       y       z     vdW  Elec       q    Type
REMARK                         _______ _______ _______ _____ _____    ______ ____
ROOT
ATOM      1  N   UNL     1      -8.863  20.174  67.826  0.00  0.00    -0.128 NA
ATOM      2  C   UNL     1      -8.213  19.137  67.949  0.00  0.00    +0.094 A 
ATOM      3  C   UNL     1      -8.605  17.982  67.282  0.00  0.00    +0.075 A 
ATOM      4  C   UNL     1      -9.831  17.579  66.577  0.00  0.00    +0.257 C 
ATOM      5  N   UNL     1      -9.677  16.258  66.036  0.00  0.00    -0.216 N 
ATOM      6  C   UNL     1      -8.519  15.768  66.737  0.00  0.00    +0.255 C 
ATOM      7  O   UNL     1      -8.177  14.550  66.854  0.00  0.00    -0.269 OA
ATOM      8  O   UNL     1     -10.899  18.217  66.829  0.00  0.00    -0.269 OA
ATOM      9  C   UNL     1      -7.823  16.840  67.408  0.00  0.00    +0.060 A 
ATOM     10  C   UNL     1      -6.663  16.849  68.174  0.00  0.00    +0.005 A 
ATOM     11  C   UNL     1      -6.458  17.900  69.061  0.00  0.00    +0.002 A 
ATOM     12  C   UNL     1      -7.166  19.050  68.861  0.00  0.00    +0.018 A 
ENDROOT
BRANCH   5  13
ATOM     13  C   UNL     1     -10.914  15.275  66.016  0.00  0.00    +0.162 C 
ATOM     14  C   UNL     1     -11.375  15.634  64.516  0.00  0.00    +0.266 C 
ATOM     15  O   UNL     1     -11.325  16.793  64.138  0.00  0.00    -0.271 OA
ATOM     16  N   UNL     1     -12.422  14.722  64.148  0.00  0.00    -0.143 NA
ATOM     17  C   UNL     1     -12.291  13.389  64.658  0.00  0.00    +0.248 C 
ATOM     18  O   UNL     1     -13.284  12.611  64.779  0.00  0.00    -0.273 OA
ATOM     19  C   UNL     1     -10.992  12.893  65.191  0.00  0.00    +0.089 C 
ATOM     20  C   UNL     1     -10.026  14.007  65.457  0.00  0.00    +0.039 C 
ENDBRANCH   5  13
TORSDOF 1
ENDMDL
MODEL 3
REMARK VINA RESULT:      -7.1      4.330      5.625
REMARK  Name = 
REMARK  1 active torsions:
REMARK  status: ('A' for Active; 'I' for Inactive)
REMARK    1  A    between atoms: N_10  and  C_11
REMARK                            x       y       z     vdW  Elec       q    Type
REMARK                         _______ _______ _______ _____ _____    ______ ____
ROOT
ATOM      1  N   UNL     1     -12.482  14.503  63.964  0.00  0.00    -0.128 NA
ATOM      2  C   UNL     1     -11.543  14.108  64.653  0.00  0.00    +0.094 A 
ATOM      3  C   UNL     1     -10.833  15.001  65.448  0.00  0.00    +0.075 A 
ATOM      4  C   UNL     1     -10.763  16.468  65.520  0.00  0.00    +0.257 C 
ATOM      5  N   UNL     1      -9.872  16.868  66.572  0.00  0.00    -0.216 N 
ATOM      6  C   UNL     1      -9.159  15.650  66.855  0.00  0.00    +0.255 C 
ATOM      7  O   UNL     1      -8.050  15.560  67.470  0.00  0.00    -0.269 OA
ATOM      8  O   UNL     1     -11.154  17.132  64.510  0.00  0.00    -0.269 OA
ATOM      9  C   UNL     1      -9.808  14.513  66.248  0.00  0.00    +0.060 A 
ATOM     10  C   UNL     1      -9.500  13.157  66.268  0.00  0.00    +0.005 A 
ATOM     11  C   UNL     1     -10.005  12.344  65.259  0.00  0.00    +0.002 A 
ATOM     12  C   UNL     1     -11.077  12.801  64.549  0.00  0.00    +0.018 A 
ENDROOT
BRANCH   5  13
ATOM     13  C   UNL     1      -8.964  18.147  66.379  0.00  0.00    +0.162 C 
ATOM     14  C   UNL     1      -9.878  19.124  67.275  0.00  0.00    +0.266 C 
ATOM     15  O   UNL     1     -11.094  19.040  67.198  0.00  0.00    -0.271 OA
ATOM     16  N   UNL     1      -9.174  20.366  67.430  0.00  0.00    -0.143 NA
ATOM     17  C   UNL     1      -7.750  20.262  67.542  0.00  0.00    +0.248 C 
ATOM     18  O   UNL     1      -6.977  21.230  67.271  0.00  0.00    -0.273 OA
ATOM     19  C   UNL     1      -7.096  18.963  67.864  0.00  0.00    +0.089 C 
ATOM     20  C   UNL     1      -8.025  17.802  67.686  0.00  0.00    +0.039 C 
ENDBRANCH   5  13
TORSDOF 1
ENDMDL
MODEL 4
REMARK VINA RESULT:      -6.9      1.976      2.472
REMARK  Name = 
REMARK  1 active torsions:
REMARK  status: ('A' for Active; 'I' for Inactive)
REMARK    1  A    between atoms: N_10  and  C_11
REMARK                            x       y       z     vdW  Elec       q    Type
REMARK                         _______ _______ _______ _____ _____    ______ ____
ROOT
ATOM      1  N   UNL     1     -12.255  16.240  71.762  0.00  0.00    -0.128 NA
ATOM      2  C   UNL     1     -12.467  15.033  71.660  0.00  0.00    +0.094 A 
ATOM      3  C   UNL     1     -12.107  14.354  70.501  0.00  0.00    +0.075 A 
ATOM      4  C   UNL     1     -11.702  14.783  69.153  0.00  0.00    +0.257 C 
ATOM      5  N   UNL     1     -11.407  13.637  68.340  0.00  0.00    -0.216 N 
ATOM      6  C   UNL     1     -11.991  12.560  69.097  0.00  0.00    +0.255 C 
ATOM      7  O   UNL     1     -12.282  11.406  68.650  0.00  0.00    -0.269 OA
ATOM      8  O   UNL     1     -11.998  15.963  68.790  0.00  0.00    -0.269 OA
ATOM      9  C   UNL     1     -12.320  12.983  70.436  0.00  0.00    +0.060 A 
ATOM     10  C   UNL     1     -12.870  12.294  71.512  0.00  0.00    +0.005 A 
ATOM     11  C   UNL     1     -13.493  13.020  72.521  0.00  0.00    +0.002 A 
ATOM     12  C   UNL     1     -13.195  14.348  72.627  0.00  0.00    +0.018 A 
ENDROOT
BRANCH   5  13
ATOM     13  C   UNL     1     -11.779  13.655  66.804  0.00  0.00    +0.162 C 
ATOM     14  C   UNL     1     -10.307  14.056  66.291  0.00  0.00    +0.266 C 
ATOM     15  O   UNL     1      -9.658  14.875  66.922  0.00  0.00    -0.271 OA
ATOM     16  N   UNL     1     -10.302  13.970  64.857  0.00  0.00    -0.143 NA
ATOM     17  C   UNL     1     -11.097  12.918  64.296  0.00  0.00    +0.248 C 
ATOM     18  O   UNL     1     -11.525  12.957  63.103  0.00  0.00    -0.273 OA
ATOM     19  C   UNL     1     -11.567  11.779  65.132  0.00  0.00    +0.089 C 
ATOM     20  C   UNL     1     -11.435  12.060  66.598  0.00  0.00    +0.039 C 
ENDBRANCH   5  13
TORSDOF 1
ENDMDL
MODEL 5
REMARK VINA RESULT:      -6.8      2.292      4.022
REMARK  Name = 
REMARK  1 active torsions:
REMARK  status: ('A' for Active; 'I' for Inactive)
REMARK    1  A    between atoms: N_10  and  C_11
REMARK                            x       y       z     vdW  Elec       q    Type
REMARK                         _______ _______ _______ _____ _____    ______ ____
ROOT
ATOM      1  N   UNL     1     -11.547  11.848  66.562  0.00  0.00    -0.128 NA
ATOM      2  C   UNL     1     -11.675  12.395  67.656  0.00  0.00    +0.094 A 
ATOM      3  C   UNL     1     -11.404  13.751  67.797  0.00  0.00    +0.075 A 
ATOM      4  C   UNL     1     -10.730  14.749  66.952  0.00  0.00    +0.257 C 
ATOM      5  N   UNL     1     -10.762  16.035  67.588  0.00  0.00    -0.216 N 
ATOM      6  C   UNL     1     -11.121  15.704  68.942  0.00  0.00    +0.255 C 
ATOM      7  O   UNL     1     -10.961  16.448  69.960  0.00  0.00    -0.269 OA
ATOM      8  O   UNL     1      -9.950  14.328  66.042  0.00  0.00    -0.269 OA
ATOM      9  C   UNL     1     -11.601  14.346  69.036  0.00  0.00    +0.060 A 
ATOM     10  C   UNL     1     -12.073  13.608  70.116  0.00  0.00    +0.005 A 
ATOM     11  C   UNL     1     -12.047  12.221  70.038  0.00  0.00    +0.002 A 
ATOM     12  C   UNL     1     -11.950  11.654  68.801  0.00  0.00    +0.018 A 
ENDROOT
BRANCH   5  13
ATOM     13  C   UNL     1      -9.524  17.007  67.441  0.00  0.00    +0.162 C 
ATOM     14  C   UNL     1     -10.138  17.860  66.221  0.00  0.00    +0.266 C 
ATOM     15  O   UNL     1     -10.753  17.281  65.340  0.00  0.00    -0.271 OA
ATOM     16  N   UNL     1      -9.267  18.976  65.982  0.00  0.00    -0.143 NA
ATOM     17  C   UNL     1      -8.660  19.550  67.147  0.00  0.00    +0.248 C 
ATOM     18  O   UNL     1      -7.592  20.230  67.087  0.00  0.00    -0.273 OA
ATOM     19  C   UNL     1      -9.191  19.268  68.509  0.00  0.00    +0.089 C 
ATOM     20  C   UNL     1     -10.122  18.094  68.522  0.00  0.00    +0.039 C 
ENDBRANCH   5  13
TORSDOF 1
ENDMDL
MODEL 6
REMARK VINA RESULT:      -6.5      3.863      6.271
REMARK  Name = 
REMARK  1 active torsions:
REMARK  status: ('A' for Active; 'I' for Inactive)
REMARK    1  A    between atoms: N_10  and  C_11
REMARK                            x       y       z     vdW  Elec       q    Type
REMARK                         _______ _______ _______ _____ _____    ______ ____
ROOT
ATOM      1  N   UNL     1      -8.127  17.941  68.805  0.00  0.00    -0.128 NA
ATOM      2  C   UNL     1      -8.839  18.308  67.871  0.00  0.00    +0.094 A 
ATOM      3  C   UNL     1      -9.549  17.375  67.124  0.00  0.00    +0.075 A 
ATOM      4  C   UNL     1      -9.496  15.910  67.007  0.00  0.00    +0.257 C 
ATOM      5  N   UNL     1     -10.502  15.453  66.090  0.00  0.00    -0.216 N 
ATOM      6  C   UNL     1     -10.880  16.666  65.412  0.00  0.00    +0.255 C 
ATOM      7  O   UNL     1     -11.490  16.740  64.300  0.00  0.00    -0.269 OA
ATOM      8  O   UNL     1      -8.438  15.321  67.388  0.00  0.00    -0.269 OA
ATOM      9  C   UNL     1     -10.377  17.828  66.104  0.00  0.00    +0.060 A 
ATOM     10  C   UNL     1     -10.509  19.187  65.840  0.00  0.00    +0.005 A 
ATOM     11  C   UNL     1      -9.577  20.064  66.383  0.00  0.00    +0.002 A 
ATOM     12  C   UNL     1      -8.840  19.633  67.448  0.00  0.00    +0.018 A 
ENDROOT
BRANCH   5  13
ATOM     13  C   UNL     1     -10.195  14.225  65.145  0.00  0.00    +0.162 C 
ATOM     14  C   UNL     1     -10.640  13.096  66.203  0.00  0.00    +0.266 C 
ATOM     15  O   UNL     1     -10.350  13.236  67.381  0.00  0.00    -0.271 OA
ATOM     16  N   UNL     1     -10.632  11.830  65.526  0.00  0.00    -0.143 NA
ATOM     17  C   UNL     1     -11.040  11.858  64.153  0.00  0.00    +0.248 C 
ATOM     18  O   UNL     1     -10.705  10.955  63.329  0.00  0.00    -0.273 OA
ATOM     19  C   UNL     1     -11.779  13.023  63.594  0.00  0.00    +0.089 C 
ATOM     20  C   UNL     1     -11.702  14.224  64.486  0.00  0.00    +0.039 C 
ENDBRANCH   5  13
TORSDOF 1
ENDMDL
MODEL 7
REMARK VINA RESULT:      -6.5      2.530      4.030
REMARK  Name = 
REMARK  1 active torsions:
REMARK  status: ('A' for Active; 'I' for Inactive)
REMARK    1  A    between atoms: N_10  and  C_11
REMARK                            x       y       z     vdW  Elec       q    Type
REMARK                         _______ _______ _______ _____ _____    ______ ____
ROOT
ATOM      1  N   UNL     1     -14.058  13.065  72.548  0.00  0.00    -0.128 NA
ATOM      2  C   UNL     1     -13.311  13.987  72.222  0.00  0.00    +0.094 A 
ATOM      3  C   UNL     1     -12.525  13.881  71.080  0.00  0.00    +0.075 A 
ATOM      4  C   UNL     1     -12.154  12.764  70.199  0.00  0.00    +0.257 C 
ATOM      5  N   UNL     1     -11.326  13.237  69.125  0.00  0.00    -0.216 N 
ATOM      6  C   UNL     1     -10.925  14.538  69.593  0.00  0.00    +0.255 C 
ATOM      7  O   UNL     1      -9.940  15.216  69.161  0.00  0.00    -0.269 OA
ATOM      8  O   UNL     1     -12.275  11.583  70.652  0.00  0.00    -0.269 OA
ATOM      9  C   UNL     1     -11.726  14.958  70.717  0.00  0.00    +0.060 A 
ATOM     10  C   UNL     1     -11.718  16.127  71.470  0.00  0.00    +0.005 A 
ATOM     11  C   UNL     1     -12.264  16.101  72.748  0.00  0.00    +0.002 A 
ATOM     12  C   UNL     1     -13.124  15.087  73.053  0.00  0.00    +0.018 A 
ENDROOT
BRANCH   5  13
ATOM     13  C   UNL     1     -10.151  12.326  68.588  0.00  0.00    +0.162 C 
ATOM     14  C   UNL     1     -10.964  11.753  67.322  0.00  0.00    +0.266 C 
ATOM     15  O   UNL     1     -12.144  11.467  67.451  0.00  0.00    -0.271 OA
ATOM     16  N   UNL     1     -10.046  10.999  66.515  0.00  0.00    -0.143 NA
ATOM     17  C   UNL     1      -8.709  11.510  66.455  0.00  0.00    +0.248 C 
ATOM     18  O   UNL     1      -7.719  10.778  66.152  0.00  0.00    -0.273 OA
ATOM     19  C   UNL     1      -8.399  12.906  66.869  0.00  0.00    +0.089 C 
ATOM     20  C   UNL     1      -9.514  13.524  67.657  0.00  0.00    +0.039 C 
ENDBRANCH   5  13
TORSDOF 1
ENDMDL
MODEL 8
REMARK VINA RESULT:      -6.5      4.072      5.337
REMARK  Name = 
REMARK  1 active torsions:
REMARK  status: ('A' for Active; 'I' for Inactive)
REMARK    1  A    between atoms: N_10  and  C_11
REMARK                            x       y       z     vdW  Elec       q    Type
REMARK                         _______ _______ _______ _____ _____    ______ ____
ROOT
ATOM      1  N   UNL     1     -12.519  13.566  63.133  0.00  0.00    -0.128 NA
ATOM      2  C   UNL     1     -11.672  13.248  63.967  0.00  0.00    +0.094 A 
ATOM      3  C   UNL     1     -11.204  14.184  64.882  0.00  0.00    +0.075 A 
ATOM      4  C   UNL     1     -11.304  15.648  64.984  0.00  0.00    +0.257 C 
ATOM      5  N   UNL     1     -10.648  16.105  66.177  0.00  0.00    -0.216 N 
ATOM      6  C   UNL     1      -9.866  14.958  66.560  0.00  0.00    +0.255 C 
ATOM      7  O   UNL     1      -8.873  14.964  67.353  0.00  0.00    -0.269 OA
ATOM      8  O   UNL     1     -11.589  16.299  63.932  0.00  0.00    -0.269 OA
ATOM      9  C   UNL     1     -10.280  13.780  65.838  0.00  0.00    +0.060 A 
ATOM     10  C   UNL     1      -9.837  12.462  65.891  0.00  0.00    +0.005 A 
ATOM     11  C   UNL     1     -10.077  11.634  64.801  0.00  0.00    +0.002 A 
ATOM     12  C   UNL     1     -11.058  12.001  63.926  0.00  0.00    +0.018 A 
ENDROOT
BRANCH   5  13
ATOM     13  C   UNL     1      -9.863  17.476  66.158  0.00  0.00    +0.162 C 
ATOM     14  C   UNL     1      -9.922  17.712  67.749  0.00  0.00    +0.266 C 
ATOM     15  O   UNL     1     -10.944  17.435  68.356  0.00  0.00    -0.271 OA
ATOM     16  N   UNL     1      -9.098  18.848  68.056  0.00  0.00    -0.143 NA
ATOM     17  C   UNL     1      -7.915  18.989  67.260  0.00  0.00    +0.248 C 
ATOM     18  O   UNL     1      -7.327  20.103  67.115  0.00  0.00    -0.273 OA
ATOM     19  C   UNL     1      -7.387  17.852  66.457  0.00  0.00    +0.089 C 
ATOM     20  C   UNL     1      -8.392  16.752  66.304  0.00  0.00    +0.039 C 
ENDBRANCH   5  13
TORSDOF 1
ENDMDL
MODEL 9
REMARK VINA RESULT:      -6.4      3.856      5.321
REMARK  Name = 
REMARK  1 active torsions:
REMARK  status: ('A' for Active; 'I' for Inactive)
REMARK    1  A    between atoms: N_10  and  C_11
REMARK                            x       y       z     vdW  Elec       q    Type
REMARK                         _______ _______ _______ _____ _____    ______ ____
ROOT
ATOM      1  N   UNL     1      -8.227   7.998  65.039  0.00  0.00    -0.128 NA
ATOM      2  C   UNL     1      -8.921   8.494  65.926  0.00  0.00    +0.094 A 
ATOM      3  C   UNL     1      -9.744   9.580  65.647  0.00  0.00    +0.075 A 
ATOM      4  C   UNL     1      -9.845  10.517  64.518  0.00  0.00    +0.257 C 
ATOM      5  N   UNL     1     -10.917  11.446  64.743  0.00  0.00    -0.216 N 
ATOM      6  C   UNL     1     -11.185  11.275  66.148  0.00  0.00    +0.255 C 
ATOM      7  O   UNL     1     -11.813  12.092  66.892  0.00  0.00    -0.269 OA
ATOM      8  O   UNL     1      -8.844  10.628  63.744  0.00  0.00    -0.269 OA
ATOM      9  C   UNL     1     -10.547  10.087  66.660  0.00  0.00    +0.060 A 
ATOM     10  C   UNL     1     -10.544   9.516  67.928  0.00  0.00    +0.005 A 
ATOM     11  C   UNL     1      -9.513   8.646  68.265  0.00  0.00    +0.002 A 
ATOM     12  C   UNL     1      -8.797   8.083  67.249  0.00  0.00    +0.018 A 
ENDROOT
BRANCH   5  13
ATOM     13  C   UNL     1     -10.762  12.944  64.267  0.00  0.00    +0.162 C 
ATOM     14  C   UNL     1     -12.336  13.281  64.296  0.00  0.00    +0.266 C 
ATOM     15  O   UNL     1     -13.133  12.442  63.907  0.00  0.00    -0.271 OA
ATOM     16  N   UNL     1     -12.489  14.690  64.067  0.00  0.00    -0.143 NA
ATOM     17  C   UNL     1     -11.471  15.525  64.634  0.00  0.00    +0.248 C 
ATOM     18  O   UNL     1     -11.229  16.689  64.194  0.00  0.00    -0.273 OA
ATOM     19  C   UNL     1     -10.559  15.014  65.693  0.00  0.00    +0.089 C 
ATOM     20  C   UNL     1     -10.594  13.520  65.799  0.00  0.00    +0.039 C 
ENDBRANCH   5  13
TORSDOF 1
ENDMDL
