MODEL 1
REMARK VINA RESULT:      -9.1      0.000      0.000
REMARK  Name = 
REMARK  5 active torsions:
REMARK  status: ('A' for Active; 'I' for Inactive)
REMARK    1  A    between atoms: N_4  and  C_5
REMARK    2  A    between atoms: N_16  and  N_17
REMARK    3  A    between atoms: N_17  and  C_18
REMARK    4  A    between atoms: C_22  and  C_23
REMARK    5  A    between atoms: C_27  and  C_28
REMARK                            x       y       z     vdW  Elec       q    Type
REMARK                         _______ _______ _______ _____ _____    ______ ____
ROOT
ATOM      1  N   UNL     1      -8.944  16.658  65.771  0.00  0.00    -0.114 NA
ENDROOT
BRANCH   1   5
ATOM      2  C   UNL     1     -12.656  14.309  64.782  0.00  0.00    +0.056 C 
ATOM      3  C   UNL     1     -11.658  14.195  65.889  0.00  0.00    +0.101 C 
ATOM      4  C   UNL     1     -10.364  14.874  66.015  0.00  0.00    +0.171 C 
ATOM      5  N   UNL     1      -9.984  15.872  65.274  0.00  0.00    -0.153 NA
ATOM      6  C   UNL     1      -9.940  14.598  67.392  0.00  0.00    +0.292 C 
ATOM      7  O   UNL     1      -8.943  15.120  67.958  0.00  0.00    -0.266 OA
ATOM      8  N   UNL     1     -10.985  13.802  67.962  0.00  0.00    -0.154 N 
ATOM      9  N   UNL     1     -11.850  13.433  66.914  0.00  0.00    -0.174 NA
BRANCH   8  10
ATOM     10  C   UNL     1     -11.201  13.659  69.371  0.00  0.00    +0.077 A 
ATOM     11  C   UNL     1     -11.173  14.775  70.199  0.00  0.00    +0.012 A 
ATOM     12  C   UNL     1     -12.019  14.840  71.288  0.00  0.00    -0.024 A 
ATOM     13  C   UNL     1     -12.080  16.061  72.136  0.00  0.00    +0.031 C 
ATOM     14  C   UNL     1     -12.937  13.840  71.580  0.00  0.00    -0.026 A 
ATOM     15  C   UNL     1     -14.291  14.218  72.092  0.00  0.00    +0.031 C 
ATOM     16  C   UNL     1     -12.744  12.629  70.929  0.00  0.00    -0.003 A 
ATOM     17  C   UNL     1     -11.805  12.530  69.909  0.00  0.00    +0.016 A 
ENDBRANCH   8  10
ENDBRANCH   1   5
BRANCH   1  18
ATOM     18  C   UNL     1      -9.101  18.026  66.137  0.00  0.00    +0.130 A 
ATOM     19  C   UNL     1      -8.035  18.845  66.460  0.00  0.00    +0.212 A 
ATOM     20  O   UNL     1      -6.765  18.457  66.034  0.00  0.00    -0.285 OA
ATOM     21  C   UNL     1      -8.173  19.970  67.261  0.00  0.00    +0.040 A 
ATOM     22  C   UNL     1      -9.477  20.399  67.474  0.00  0.00    +0.003 A 
ATOM     23  C   UNL     1     -10.567  19.555  67.309  0.00  0.00    +0.002 A 
ATOM     24  C   UNL     1     -10.350  18.390  66.624  0.00  0.00    +0.022 A 
BRANCH  21  25
ATOM     25  C   UNL     1      -7.062  20.397  68.118  0.00  0.00    +0.003 A 
ATOM     26  C   UNL     1      -6.782  19.663  69.260  0.00  0.00    +0.007 A 
ATOM     27  C   UNL     1      -5.497  19.566  69.776  0.00  0.00    +0.080 A 
ATOM     28  C   UNL     1      -4.456  20.151  69.080  0.00  0.00    +0.007 A 
ATOM     29  C   UNL     1      -4.687  20.875  67.932  0.00  0.00    +0.000 A 
ATOM     30  C   UNL     1      -6.008  21.150  67.615  0.00  0.00    +0.000 A 
BRANCH  27  31
ATOM     31  C   UNL     1      -5.136  18.607  70.811  0.00  0.00    +0.388 C 
ATOM     32  O   UNL     1      -4.299  17.550  70.474  0.00  0.00    -0.241 OA
ATOM     33  O   UNL     1      -5.167  18.937  72.030  0.00  0.00    -0.241 OA
ENDBRANCH  27  31
ENDBRANCH  21  25
ENDBRANCH   1  18
TORSDOF 5
ENDMDL
MODEL 2
REMARK VINA RESULT:      -8.6      5.511      8.651
REMARK  Name = 
REMARK  5 active torsions:
REMARK  status: ('A' for Active; 'I' for Inactive)
REMARK    1  A    between atoms: N_4  and  C_5
REMARK    2  A    between atoms: N_16  and  N_17
REMARK    3  A    between atoms: N_17  and  C_18
REMARK    4  A    between atoms: C_22  and  C_23
REMARK    5  A    between atoms: C_27  and  C_28
REMARK                            x       y       z     vdW  Elec       q    Type
REMARK                         _______ _______ _______ _____ _____    ______ ____
ROOT
ATOM      1  N   UNL     1     -12.284  11.167  71.314  0.00  0.00    -0.114 NA
ENDROOT
BRANCH   1   5
ATOM      2  C   UNL     1     -15.112   7.715  71.916  0.00  0.00    +0.056 C 
ATOM      3  C   UNL     1     -13.639   7.778  71.670  0.00  0.00    +0.101 C 
ATOM      4  C   UNL     1     -12.835   8.941  71.279  0.00  0.00    +0.171 C 
ATOM      5  N   UNL     1     -13.259  10.169  71.309  0.00  0.00    -0.153 NA
ATOM      6  C   UNL     1     -11.447   8.494  71.435  0.00  0.00    +0.292 C 
ATOM      7  O   UNL     1     -10.434   9.237  71.339  0.00  0.00    -0.266 OA
ATOM      8  N   UNL     1     -11.530   7.140  71.894  0.00  0.00    -0.154 N 
ATOM      9  N   UNL     1     -12.876   6.742  71.785  0.00  0.00    -0.174 NA
BRANCH   8  10
ATOM     10  C   UNL     1     -10.465   6.458  72.568  0.00  0.00    +0.077 A 
ATOM     11  C   UNL     1     -10.244   6.674  73.924  0.00  0.00    +0.012 A 
ATOM     12  C   UNL     1      -9.811   5.635  74.720  0.00  0.00    -0.024 A 
ATOM     13  C   UNL     1      -9.659   5.811  76.190  0.00  0.00    +0.031 C 
ATOM     14  C   UNL     1      -9.613   4.351  74.229  0.00  0.00    -0.026 A 
ATOM     15  C   UNL     1      -9.998   3.178  75.075  0.00  0.00    +0.031 C 
ATOM     16  C   UNL     1      -9.553   4.231  72.847  0.00  0.00    -0.003 A 
ATOM     17  C   UNL     1      -9.875   5.316  72.041  0.00  0.00    +0.016 A 
ENDBRANCH   8  10
ENDBRANCH   1   5
BRANCH   1  18
ATOM     18  C   UNL     1     -12.468  12.446  70.715  0.00  0.00    +0.130 A 
ATOM     19  C   UNL     1     -12.195  12.699  69.384  0.00  0.00    +0.212 A 
ATOM     20  O   UNL     1     -12.131  11.609  68.515  0.00  0.00    -0.285 OA
ATOM     21  C   UNL     1     -11.896  13.968  68.910  0.00  0.00    +0.040 A 
ATOM     22  C   UNL     1     -12.176  15.015  69.779  0.00  0.00    +0.003 A 
ATOM     23  C   UNL     1     -12.302  14.822  71.148  0.00  0.00    +0.002 A 
ATOM     24  C   UNL     1     -12.463  13.534  71.580  0.00  0.00    +0.022 A 
BRANCH  21  25
ATOM     25  C   UNL     1     -10.994  14.127  67.764  0.00  0.00    +0.003 A 
ATOM     26  C   UNL     1     -11.545  14.349  66.511  0.00  0.00    +0.007 A 
ATOM     27  C   UNL     1     -10.883  15.085  65.537  0.00  0.00    +0.080 A 
ATOM     28  C   UNL     1      -9.679  15.684  65.860  0.00  0.00    +0.007 A 
ATOM     29  C   UNL     1      -9.106  15.503  67.098  0.00  0.00    +0.000 A 
ATOM     30  C   UNL     1      -9.683  14.555  67.927  0.00  0.00    +0.000 A 
BRANCH  27  31
ATOM     31  C   UNL     1     -11.538  15.545  64.319  0.00  0.00    +0.388 C 
ATOM     32  O   UNL     1     -12.597  14.801  63.814  0.00  0.00    -0.241 OA
ATOM     33  O   UNL     1     -11.494  16.764  63.989  0.00  0.00    -0.241 OA
ENDBRANCH  27  31
ENDBRANCH  21  25
ENDBRANCH   1  18
TORSDOF 5
ENDMDL
MODEL 3
REMARK VINA RESULT:      -8.6      2.156      3.578
REMARK  Name = 
REMARK  5 active torsions:
REMARK  status: ('A' for Active; 'I' for Inactive)
REMARK    1  A    between atoms: N_4  and  C_5
REMARK    2  A    between atoms: N_16  and  N_17
REMARK    3  A    between atoms: N_17  and  C_18
REMARK    4  A    between atoms: C_22  and  C_23
REMARK    5  A    between atoms: C_27  and  C_28
REMARK                            x       y       z     vdW  Elec       q    Type
REMARK                         _______ _______ _______ _____ _____    ______ ____
ROOT
ATOM      1  N   UNL     1      -9.883  16.170  68.778  0.00  0.00    -0.114 NA
ENDROOT
BRANCH   1   5
ATOM      2  C   UNL     1     -12.102  15.868  72.684  0.00  0.00    +0.056 C 
ATOM      3  C   UNL     1     -12.098  15.010  71.460  0.00  0.00    +0.101 C 
ATOM      4  C   UNL     1     -11.499  15.300  70.153  0.00  0.00    +0.171 C 
ATOM      5  N   UNL     1     -10.667  16.273  69.927  0.00  0.00    -0.153 NA
ATOM      6  C   UNL     1     -11.568  14.026  69.429  0.00  0.00    +0.292 C 
ATOM      7  O   UNL     1     -11.029  13.800  68.313  0.00  0.00    -0.266 OA
ATOM      8  N   UNL     1     -12.184  13.104  70.335  0.00  0.00    -0.154 N 
ATOM      9  N   UNL     1     -12.662  13.848  71.430  0.00  0.00    -0.174 NA
BRANCH   8  10
ATOM     10  C   UNL     1     -12.074  11.680  70.222  0.00  0.00    +0.077 A 
ATOM     11  C   UNL     1     -10.999  11.113  69.546  0.00  0.00    +0.012 A 
ATOM     12  C   UNL     1     -10.465   9.920  69.988  0.00  0.00    -0.024 A 
ATOM     13  C   UNL     1      -9.256   9.339  69.345  0.00  0.00    +0.031 C 
ATOM     14  C   UNL     1     -10.937   9.265  71.118  0.00  0.00    -0.026 A 
ATOM     15  C   UNL     1      -9.963   8.594  72.034  0.00  0.00    +0.031 C 
ATOM     16  C   UNL     1     -12.173   9.684  71.592  0.00  0.00    -0.003 A 
ATOM     17  C   UNL     1     -12.771  10.821  71.063  0.00  0.00    +0.016 A 
ENDBRANCH   8  10
ENDBRANCH   1   5
BRANCH   1  18
ATOM     18  C   UNL     1      -9.570  17.279  67.940  0.00  0.00    +0.130 A 
ATOM     19  C   UNL     1      -8.293  17.795  67.822  0.00  0.00    +0.212 A 
ATOM     20  O   UNL     1      -7.225  16.982  68.201  0.00  0.00    -0.285 OA
ATOM     21  C   UNL     1      -8.049  19.105  67.435  0.00  0.00    +0.040 A 
ATOM     22  C   UNL     1      -9.132  19.780  66.885  0.00  0.00    +0.003 A 
ATOM     23  C   UNL     1     -10.442  19.380  67.113  0.00  0.00    +0.002 A 
ATOM     24  C   UNL     1     -10.626  18.123  67.622  0.00  0.00    +0.022 A 
BRANCH  21  25
ATOM     25  C   UNL     1      -6.868  19.811  67.945  0.00  0.00    +0.003 A 
ATOM     26  C   UNL     1      -6.761  20.027  69.310  0.00  0.00    +0.007 A 
ATOM     27  C   UNL     1      -5.531  20.099  69.949  0.00  0.00    +0.080 A 
ATOM     28  C   UNL     1      -4.385  19.860  69.213  0.00  0.00    +0.007 A 
ATOM     29  C   UNL     1      -4.447  19.625  67.858  0.00  0.00    +0.000 A 
ATOM     30  C   UNL     1      -5.671  19.823  67.239  0.00  0.00    +0.000 A 
BRANCH  27  31
ATOM     31  C   UNL     1      -5.396  20.069  71.399  0.00  0.00    +0.388 C 
ATOM     32  O   UNL     1      -5.144  18.851  72.018  0.00  0.00    -0.241 OA
ATOM     33  O   UNL     1      -5.051  21.107  72.032  0.00  0.00    -0.241 OA
ENDBRANCH  27  31
ENDBRANCH  21  25
ENDBRANCH   1  18
TORSDOF 5
ENDMDL
MODEL 4
REMARK VINA RESULT:      -8.5      1.965      3.967
REMARK  Name = 
REMARK  5 active torsions:
REMARK  status: ('A' for Active; 'I' for Inactive)
REMARK    1  A    between atoms: N_4  and  C_5
REMARK    2  A    between atoms: N_16  and  N_17
REMARK    3  A    between atoms: N_17  and  C_18
REMARK    4  A    between atoms: C_22  and  C_23
REMARK    5  A    between atoms: C_27  and  C_28
REMARK                            x       y       z     vdW  Elec       q    Type
REMARK                         _______ _______ _______ _____ _____    ______ ____
ROOT
ATOM      1  N   UNL     1      -8.543  16.753  68.366  0.00  0.00    -0.114 NA
ENDROOT
BRANCH   1   5
ATOM      2  C   UNL     1     -11.585  15.255  71.328  0.00  0.00    +0.056 C 
ATOM      3  C   UNL     1     -11.478  15.125  69.843  0.00  0.00    +0.101 C 
ATOM      4  C   UNL     1     -10.561  15.824  68.937  0.00  0.00    +0.171 C 
ATOM      5  N   UNL     1      -9.527  16.509  69.325  0.00  0.00    -0.153 NA
ATOM      6  C   UNL     1     -10.715  15.129  67.654  0.00  0.00    +0.292 C 
ATOM      7  O   UNL     1      -9.997  15.323  66.637  0.00  0.00    -0.266 OA
ATOM      8  N   UNL     1     -11.683  14.100  67.890  0.00  0.00    -0.154 N 
ATOM      9  N   UNL     1     -12.237  14.330  69.164  0.00  0.00    -0.174 NA
BRANCH   8  10
ATOM     10  C   UNL     1     -11.830  12.938  67.065  0.00  0.00    +0.077 A 
ATOM     11  C   UNL     1     -12.276  13.062  65.754  0.00  0.00    +0.012 A 
ATOM     12  C   UNL     1     -11.778  12.222  64.780  0.00  0.00    -0.024 A 
ATOM     13  C   UNL     1     -12.164  12.394  63.353  0.00  0.00    +0.031 C 
ATOM     14  C   UNL     1     -10.809  11.263  65.045  0.00  0.00    -0.026 A 
ATOM     15  C   UNL     1      -9.730  11.015  64.038  0.00  0.00    +0.031 C 
ATOM     16  C   UNL     1     -10.602  10.963  66.385  0.00  0.00    -0.003 A 
ATOM     17  C   UNL     1     -11.201  11.737  67.371  0.00  0.00    +0.016 A 
ENDBRANCH   8  10
ENDBRANCH   1   5
BRANCH   1  18
ATOM     18  C   UNL     1      -8.355  18.019  67.740  0.00  0.00    +0.130 A 
ATOM     19  C   UNL     1      -7.118  18.625  67.627  0.00  0.00    +0.212 A 
ATOM     20  O   UNL     1      -5.985  17.821  67.755  0.00  0.00    -0.285 OA
ATOM     21  C   UNL     1      -6.969  19.998  67.486  0.00  0.00    +0.040 A 
ATOM     22  C   UNL     1      -8.124  20.698  67.165  0.00  0.00    +0.003 A 
ATOM     23  C   UNL     1      -9.391  20.182  67.410  0.00  0.00    +0.002 A 
ATOM     24  C   UNL     1      -9.472  18.842  67.676  0.00  0.00    +0.022 A 
BRANCH  21  25
ATOM     25  C   UNL     1      -5.780  20.663  68.031  0.00  0.00    +0.003 A 
ATOM     26  C   UNL     1      -5.680  20.824  69.404  0.00  0.00    +0.007 A 
ATOM     27  C   UNL     1      -4.454  20.851  70.054  0.00  0.00    +0.080 A 
ATOM     28  C   UNL     1      -3.306  20.623  69.317  0.00  0.00    +0.007 A 
ATOM     29  C   UNL     1      -3.362  20.442  67.953  0.00  0.00    +0.000 A 
ATOM     30  C   UNL     1      -4.578  20.684  67.335  0.00  0.00    +0.000 A 
BRANCH  27  31
ATOM     31  C   UNL     1      -4.330  20.762  71.503  0.00  0.00    +0.388 C 
ATOM     32  O   UNL     1      -4.461  21.924  72.253  0.00  0.00    -0.241 OA
ATOM     33  O   UNL     1      -4.563  19.674  72.100  0.00  0.00    -0.241 OA
ENDBRANCH  27  31
ENDBRANCH  21  25
ENDBRANCH   1  18
TORSDOF 5
ENDMDL
MODEL 5
REMARK VINA RESULT:      -8.2      2.773      8.840
REMARK  Name = 
REMARK  5 active torsions:
REMARK  status: ('A' for Active; 'I' for Inactive)
REMARK    1  A    between atoms: N_4  and  C_5
REMARK    2  A    between atoms: N_16  and  N_17
REMARK    3  A    between atoms: N_17  and  C_18
REMARK    4  A    between atoms: C_22  and  C_23
REMARK    5  A    between atoms: C_27  and  C_28
REMARK                            x       y       z     vdW  Elec       q    Type
REMARK                         _______ _______ _______ _____ _____    ______ ____
ROOT
ATOM      1  N   UNL     1      -9.838  16.975  69.289  0.00  0.00    -0.114 NA
ENDROOT
BRANCH   1   5
ATOM      2  C   UNL     1     -10.873  19.589  65.772  0.00  0.00    +0.056 C 
ATOM      3  C   UNL     1      -9.607  19.393  66.542  0.00  0.00    +0.101 C 
ATOM      4  C   UNL     1      -9.418  18.673  67.805  0.00  0.00    +0.171 C 
ATOM      5  N   UNL     1     -10.304  17.888  68.342  0.00  0.00    -0.153 NA
ATOM      6  C   UNL     1      -7.962  18.578  67.957  0.00  0.00    +0.292 C 
ATOM      7  O   UNL     1      -7.371  17.905  68.843  0.00  0.00    -0.266 OA
ATOM      8  N   UNL     1      -7.414  19.228  66.805  0.00  0.00    -0.154 N 
ATOM      9  N   UNL     1      -8.476  19.873  66.142  0.00  0.00    -0.174 NA
BRANCH   8  10
ATOM     10  C   UNL     1      -6.081  19.013  66.325  0.00  0.00    +0.077 A 
ATOM     11  C   UNL     1      -5.866  18.636  65.005  0.00  0.00    +0.012 A 
ATOM     12  C   UNL     1      -4.751  19.098  64.335  0.00  0.00    -0.024 A 
ATOM     13  C   UNL     1      -4.544  18.790  62.894  0.00  0.00    +0.031 C 
ATOM     14  C   UNL     1      -3.836  19.964  64.918  0.00  0.00    -0.026 A 
ATOM     15  C   UNL     1      -3.236  21.058  64.092  0.00  0.00    +0.031 C 
ATOM     16  C   UNL     1      -3.909  20.085  66.299  0.00  0.00    -0.003 A 
ATOM     17  C   UNL     1      -4.971  19.517  66.992  0.00  0.00    +0.016 A 
ENDBRANCH   8  10
ENDBRANCH   1   5
BRANCH   1  18
ATOM     18  C   UNL     1     -10.567  15.818  69.689  0.00  0.00    +0.130 A 
ATOM     19  C   UNL     1     -10.532  14.628  68.987  0.00  0.00    +0.212 A 
ATOM     20  O   UNL     1      -9.463  14.419  68.114  0.00  0.00    -0.285 OA
ATOM     21  C   UNL     1     -11.555  13.693  69.050  0.00  0.00    +0.040 A 
ATOM     22  C   UNL     1     -12.470  13.873  70.079  0.00  0.00    +0.003 A 
ATOM     23  C   UNL     1     -12.645  15.101  70.703  0.00  0.00    +0.002 A 
ATOM     24  C   UNL     1     -11.670  16.041  70.503  0.00  0.00    +0.022 A 
BRANCH  21  25
ATOM     25  C   UNL     1     -11.845  12.848  67.886  0.00  0.00    +0.003 A 
ATOM     26  C   UNL     1     -12.260  13.456  66.711  0.00  0.00    +0.007 A 
ATOM     27  C   UNL     1     -11.982  12.912  65.464  0.00  0.00    +0.080 A 
ATOM     28  C   UNL     1     -11.195  11.777  65.395  0.00  0.00    +0.007 A 
ATOM     29  C   UNL     1     -10.748  11.151  66.537  0.00  0.00    +0.000 A 
ATOM     30  C   UNL     1     -11.272  11.591  67.742  0.00  0.00    +0.000 A 
BRANCH  27  31
ATOM     31  C   UNL     1     -12.178  13.650  64.223  0.00  0.00    +0.388 C 
ATOM     32  O   UNL     1     -12.430  12.935  63.059  0.00  0.00    -0.241 OA
ATOM     33  O   UNL     1     -12.572  14.850  64.247  0.00  0.00    -0.241 OA
ENDBRANCH  27  31
ENDBRANCH  21  25
ENDBRANCH   1  18
TORSDOF 5
ENDMDL
MODEL 6
REMARK VINA RESULT:      -8.2      3.685      6.028
REMARK  Name = 
REMARK  5 active torsions:
REMARK  status: ('A' for Active; 'I' for Inactive)
REMARK    1  A    between atoms: N_4  and  C_5
REMARK    2  A    between atoms: N_16  and  N_17
REMARK    3  A    between atoms: N_17  and  C_18
REMARK    4  A    between atoms: C_22  and  C_23
REMARK    5  A    between atoms: C_27  and  C_28
REMARK                            x       y       z     vdW  Elec       q    Type
REMARK                         _______ _______ _______ _____ _____    ______ ____
ROOT
ATOM      1  N   UNL     1     -10.772  12.386  67.968  0.00  0.00    -0.114 NA
ENDROOT
BRANCH   1   5
ATOM      2  C   UNL     1     -13.152  12.504  71.788  0.00  0.00    +0.056 C 
ATOM      3  C   UNL     1     -12.534  11.380  71.022  0.00  0.00    +0.101 C 
ATOM      4  C   UNL     1     -11.953  11.412  69.676  0.00  0.00    +0.171 C 
ATOM      5  N   UNL     1     -11.679  12.502  69.022  0.00  0.00    -0.153 NA
ATOM      6  C   UNL     1     -11.274  10.119  69.540  0.00  0.00    +0.292 C 
ATOM      7  O   UNL     1     -10.523   9.796  68.581  0.00  0.00    -0.266 OA
ATOM      8  N   UNL     1     -11.497   9.438  70.779  0.00  0.00    -0.154 N 
ATOM      9  N   UNL     1     -12.446  10.184  71.504  0.00  0.00    -0.174 NA
BRANCH   8  10
ATOM     10  C   UNL     1     -10.688   8.352  71.250  0.00  0.00    +0.077 A 
ATOM     11  C   UNL     1      -9.550   8.605  72.006  0.00  0.00    +0.012 A 
ATOM     12  C   UNL     1      -9.192   7.736  73.016  0.00  0.00    -0.024 A 
ATOM     13  C   UNL     1      -8.035   8.031  73.904  0.00  0.00    +0.031 C 
ATOM     14  C   UNL     1      -9.950   6.619  73.342  0.00  0.00    -0.026 A 
ATOM     15  C   UNL     1     -10.110   6.239  74.780  0.00  0.00    +0.031 C 
ATOM     16  C   UNL     1     -10.896   6.232  72.403  0.00  0.00    -0.003 A 
ATOM     17  C   UNL     1     -11.173   7.052  71.316  0.00  0.00    +0.016 A 
ENDBRANCH   8  10
ENDBRANCH   1   5
BRANCH   1  18
ATOM     18  C   UNL     1     -10.642  13.358  66.934  0.00  0.00    +0.130 A 
ATOM     19  C   UNL     1      -9.813  14.459  67.038  0.00  0.00    +0.212 A 
ATOM     20  O   UNL     1      -8.786  14.414  67.981  0.00  0.00    -0.285 OA
ATOM     21  C   UNL     1     -10.023  15.624  66.314  0.00  0.00    +0.040 A 
ATOM     22  C   UNL     1     -10.926  15.523  65.263  0.00  0.00    +0.003 A 
ATOM     23  C   UNL     1     -11.881  14.516  65.207  0.00  0.00    +0.002 A 
ATOM     24  C   UNL     1     -11.700  13.444  66.038  0.00  0.00    +0.022 A 
BRANCH  21  25
ATOM     25  C   UNL     1      -9.628  16.918  66.880  0.00  0.00    +0.003 A 
ATOM     26  C   UNL     1      -8.475  17.526  66.408  0.00  0.00    +0.007 A 
ATOM     27  C   UNL     1      -8.329  18.906  66.382  0.00  0.00    +0.080 A 
ATOM     28  C   UNL     1      -9.400  19.695  66.758  0.00  0.00    +0.007 A 
ATOM     29  C   UNL     1     -10.570  19.133  67.218  0.00  0.00    +0.000 A 
ATOM     30  C   UNL     1     -10.559  17.769  67.463  0.00  0.00    +0.000 A 
BRANCH  27  31
ATOM     31  C   UNL     1      -7.248  19.569  65.663  0.00  0.00    +0.388 C 
ATOM     32  O   UNL     1      -6.625  20.658  66.259  0.00  0.00    -0.241 OA
ATOM     33  O   UNL     1      -6.583  18.945  64.788  0.00  0.00    -0.241 OA
ENDBRANCH  27  31
ENDBRANCH  21  25
ENDBRANCH   1  18
TORSDOF 5
ENDMDL
MODEL 7
REMARK VINA RESULT:      -8.0      2.365      3.973
REMARK  Name = 
REMARK  5 active torsions:
REMARK  status: ('A' for Active; 'I' for Inactive)
REMARK    1  A    between atoms: N_4  and  C_5
REMARK    2  A    between atoms: N_16  and  N_17
REMARK    3  A    between atoms: N_17  and  C_18
REMARK    4  A    between atoms: C_22  and  C_23
REMARK    5  A    between atoms: C_27  and  C_28
REMARK                            x       y       z     vdW  Elec       q    Type
REMARK                         _______ _______ _______ _____ _____    ______ ____
ROOT
ATOM      1  N   UNL     1     -10.690  16.438  68.261  0.00  0.00    -0.114 NA
ENDROOT
BRANCH   1   5
ATOM      2  C   UNL     1     -12.018  15.931  72.533  0.00  0.00    +0.056 C 
ATOM      3  C   UNL     1     -12.183  15.075  71.320  0.00  0.00    +0.101 C 
ATOM      4  C   UNL     1     -11.897  15.418  69.923  0.00  0.00    +0.171 C 
ATOM      5  N   UNL     1     -11.227  16.467  69.548  0.00  0.00    -0.153 NA
ATOM      6  C   UNL     1     -11.991  14.141  69.207  0.00  0.00    +0.292 C 
ATOM      7  O   UNL     1     -11.674  13.965  68.000  0.00  0.00    -0.266 OA
ATOM      8  N   UNL     1     -12.315  13.165  70.204  0.00  0.00    -0.154 N 
ATOM      9  N   UNL     1     -12.627  13.863  71.387  0.00  0.00    -0.174 NA
BRANCH   8  10
ATOM     10  C   UNL     1     -12.094  11.759  70.047  0.00  0.00    +0.077 A 
ATOM     11  C   UNL     1     -10.986  11.299  69.344  0.00  0.00    +0.012 A 
ATOM     12  C   UNL     1     -10.354  10.140  69.745  0.00  0.00    -0.024 A 
ATOM     13  C   UNL     1      -9.110   9.677  69.072  0.00  0.00    +0.031 C 
ATOM     14  C   UNL     1     -10.759   9.417  70.858  0.00  0.00    -0.026 A 
ATOM     15  C   UNL     1      -9.724   8.798  71.744  0.00  0.00    +0.031 C 
ATOM     16  C   UNL     1     -12.018   9.722  71.356  0.00  0.00    -0.003 A 
ATOM     17  C   UNL     1     -12.711  10.823  70.867  0.00  0.00    +0.016 A 
ENDBRANCH   8  10
ENDBRANCH   1   5
BRANCH   1  18
ATOM     18  C   UNL     1     -10.058  17.558  67.649  0.00  0.00    +0.130 A 
ATOM     19  C   UNL     1      -8.685  17.700  67.575  0.00  0.00    +0.212 A 
ATOM     20  O   UNL     1      -7.904  16.555  67.731  0.00  0.00    -0.285 OA
ATOM     21  C   UNL     1      -8.068  18.936  67.448  0.00  0.00    +0.040 A 
ATOM     22  C   UNL     1      -8.901  19.991  67.098  0.00  0.00    +0.003 A 
ATOM     23  C   UNL     1     -10.274  19.945  67.304  0.00  0.00    +0.002 A 
ATOM     24  C   UNL     1     -10.821  18.716  67.558  0.00  0.00    +0.022 A 
BRANCH  21  25
ATOM     25  C   UNL     1      -6.739  19.153  68.032  0.00  0.00    +0.003 A 
ATOM     26  C   UNL     1      -5.702  19.541  67.197  0.00  0.00    +0.007 A 
ATOM     27  C   UNL     1      -4.651  20.328  67.648  0.00  0.00    +0.080 A 
ATOM     28  C   UNL     1      -4.689  20.809  68.944  0.00  0.00    +0.007 A 
ATOM     29  C   UNL     1      -5.709  20.462  69.801  0.00  0.00    +0.000 A 
ATOM     30  C   UNL     1      -6.581  19.473  69.374  0.00  0.00    +0.000 A 
BRANCH  27  31
ATOM     31  C   UNL     1      -3.696  20.955  66.744  0.00  0.00    +0.388 C 
ATOM     32  O   UNL     1      -2.595  21.605  67.289  0.00  0.00    -0.241 OA
ATOM     33  O   UNL     1      -3.583  20.554  65.552  0.00  0.00    -0.241 OA
ENDBRANCH  27  31
ENDBRANCH  21  25
ENDBRANCH   1  18
TORSDOF 5
ENDMDL
MODEL 8
REMARK VINA RESULT:      -8.0      4.631      9.781
REMARK  Name = 
REMARK  5 active torsions:
REMARK  status: ('A' for Active; 'I' for Inactive)
REMARK    1  A    between atoms: N_4  and  C_5
REMARK    2  A    between atoms: N_16  and  N_17
REMARK    3  A    between atoms: N_17  and  C_18
REMARK    4  A    between atoms: C_22  and  C_23
REMARK    5  A    between atoms: C_27  and  C_28
REMARK                            x       y       z     vdW  Elec       q    Type
REMARK                         _______ _______ _______ _____ _____    ______ ____
ROOT
ATOM      1  N   UNL     1     -11.594  12.433  69.032  0.00  0.00    -0.114 NA
ENDROOT
BRANCH   1   5
ATOM      2  C   UNL     1     -12.192  12.278  64.572  0.00  0.00    +0.056 C 
ATOM      3  C   UNL     1     -11.906  13.406  65.510  0.00  0.00    +0.101 C 
ATOM      4  C   UNL     1     -11.933  13.393  66.976  0.00  0.00    +0.171 C 
ATOM      5  N   UNL     1     -11.990  12.314  67.699  0.00  0.00    -0.153 NA
ATOM      6  C   UNL     1     -11.327  14.671  67.364  0.00  0.00    +0.292 C 
ATOM      7  O   UNL     1     -11.026  14.999  68.543  0.00  0.00    -0.266 OA
ATOM      8  N   UNL     1     -10.995  15.326  66.134  0.00  0.00    -0.154 N 
ATOM      9  N   UNL     1     -11.587  14.586  65.093  0.00  0.00    -0.174 NA
BRANCH   8  10
ATOM     10  C   UNL     1     -10.028  16.378  66.025  0.00  0.00    +0.077 A 
ATOM     11  C   UNL     1     -10.425  17.706  66.131  0.00  0.00    +0.012 A 
ATOM     12  C   UNL     1      -9.589  18.623  66.734  0.00  0.00    -0.024 A 
ATOM     13  C   UNL     1     -10.025  20.030  66.948  0.00  0.00    +0.031 C 
ATOM     14  C   UNL     1      -8.362  18.268  67.280  0.00  0.00    -0.026 A 
ATOM     15  C   UNL     1      -7.919  18.907  68.559  0.00  0.00    +0.031 C 
ATOM     16  C   UNL     1      -7.867  17.026  66.906  0.00  0.00    -0.003 A 
ATOM     17  C   UNL     1      -8.669  16.144  66.193  0.00  0.00    +0.016 A 
ENDBRANCH   8  10
ENDBRANCH   1   5
BRANCH   1  18
ATOM     18  C   UNL     1     -11.568  11.338  69.943  0.00  0.00    +0.130 A 
ATOM     19  C   UNL     1     -10.656  10.304  69.850  0.00  0.00    +0.212 A 
ATOM     20  O   UNL     1      -9.492  10.527  69.114  0.00  0.00    -0.285 OA
ATOM     21  C   UNL     1     -10.899   9.043  70.376  0.00  0.00    +0.040 A 
ATOM     22  C   UNL     1     -11.969   8.956  71.257  0.00  0.00    +0.003 A 
ATOM     23  C   UNL     1     -12.991   9.898  71.271  0.00  0.00    +0.002 A 
ATOM     24  C   UNL     1     -12.751  11.080  70.623  0.00  0.00    +0.022 A 
BRANCH  21  25
ATOM     25  C   UNL     1     -10.322   7.858  69.732  0.00  0.00    +0.003 A 
ATOM     26  C   UNL     1      -9.932   6.792  70.528  0.00  0.00    +0.007 A 
ATOM     27  C   UNL     1      -9.964   5.482  70.070  0.00  0.00    +0.080 A 
ATOM     28  C   UNL     1     -10.481   5.230  68.812  0.00  0.00    +0.007 A 
ATOM     29  C   UNL     1     -10.895   6.258  67.996  0.00  0.00    +0.000 A 
ATOM     30  C   UNL     1     -10.598   7.548  68.406  0.00  0.00    +0.000 A 
BRANCH  27  31
ATOM     31  C   UNL     1      -9.807   4.336  70.955  0.00  0.00    +0.388 C 
ATOM     32  O   UNL     1     -10.431   4.365  72.196  0.00  0.00    -0.241 OA
ATOM     33  O   UNL     1      -9.537   3.195  70.485  0.00  0.00    -0.241 OA
ENDBRANCH  27  31
ENDBRANCH  21  25
ENDBRANCH   1  18
TORSDOF 5
ENDMDL
MODEL 9
REMARK VINA RESULT:      -8.0      2.504      8.553
REMARK  Name = 
REMARK  5 active torsions:
REMARK  status: ('A' for Active; 'I' for Inactive)
REMARK    1  A    between atoms: N_4  and  C_5
REMARK    2  A    between atoms: N_16  and  N_17
REMARK    3  A    between atoms: N_17  and  C_18
REMARK    4  A    between atoms: C_22  and  C_23
REMARK    5  A    between atoms: C_27  and  C_28
REMARK                            x       y       z     vdW  Elec       q    Type
REMARK                         _______ _______ _______ _____ _____    ______ ____
ROOT
ATOM      1  N   UNL     1      -9.841  17.001  69.302  0.00  0.00    -0.114 NA
ENDROOT
BRANCH   1   5
ATOM      2  C   UNL     1     -10.729  19.721  65.826  0.00  0.00    +0.056 C 
ATOM      3  C   UNL     1      -9.632  19.711  66.840  0.00  0.00    +0.101 C 
ATOM      4  C   UNL     1      -9.538  18.908  68.064  0.00  0.00    +0.171 C 
ATOM      5  N   UNL     1     -10.307  17.896  68.338  0.00  0.00    -0.153 NA
ATOM      6  C   UNL     1      -8.159  19.106  68.526  0.00  0.00    +0.292 C 
ATOM      7  O   UNL     1      -7.618  18.477  69.473  0.00  0.00    -0.266 OA
ATOM      8  N   UNL     1      -7.558  19.985  67.568  0.00  0.00    -0.154 N 
ATOM      9  N   UNL     1      -8.586  20.462  66.733  0.00  0.00    -0.174 NA
BRANCH   8  10
ATOM     10  C   UNL     1      -6.143  20.113  67.380  0.00  0.00    +0.077 A 
ATOM     11  C   UNL     1      -5.368  20.768  68.329  0.00  0.00    +0.012 A 
ATOM     12  C   UNL     1      -4.086  20.328  68.589  0.00  0.00    -0.024 A 
ATOM     13  C   UNL     1      -3.269  20.948  69.666  0.00  0.00    +0.031 C 
ATOM     14  C   UNL     1      -3.538  19.218  67.960  0.00  0.00    -0.026 A 
ATOM     15  C   UNL     1      -2.670  18.286  68.746  0.00  0.00    +0.031 C 
ATOM     16  C   UNL     1      -4.204  18.771  66.827  0.00  0.00    -0.003 A 
ATOM     17  C   UNL     1      -5.445  19.301  66.495  0.00  0.00    +0.016 A 
ENDBRANCH   8  10
ENDBRANCH   1   5
BRANCH   1  18
ATOM     18  C   UNL     1     -10.557  15.835  69.700  0.00  0.00    +0.130 A 
ATOM     19  C   UNL     1     -10.516  14.650  68.990  0.00  0.00    +0.212 A 
ATOM     20  O   UNL     1      -9.452  14.456  68.108  0.00  0.00    -0.285 OA
ATOM     21  C   UNL     1     -11.529  13.704  69.055  0.00  0.00    +0.040 A 
ATOM     22  C   UNL     1     -12.439  13.869  70.092  0.00  0.00    +0.003 A 
ATOM     23  C   UNL     1     -12.620  15.092  70.726  0.00  0.00    +0.002 A 
ATOM     24  C   UNL     1     -11.655  16.042  70.524  0.00  0.00    +0.022 A 
BRANCH  21  25
ATOM     25  C   UNL     1     -11.821  12.864  67.888  0.00  0.00    +0.003 A 
ATOM     26  C   UNL     1     -12.241  13.476  66.717  0.00  0.00    +0.007 A 
ATOM     27  C   UNL     1     -11.966  12.939  65.467  0.00  0.00    +0.080 A 
ATOM     28  C   UNL     1     -11.175  11.807  65.390  0.00  0.00    +0.007 A 
ATOM     29  C   UNL     1     -10.723  11.177  66.528  0.00  0.00    +0.000 A 
ATOM     30  C   UNL     1     -11.244  11.609  67.737  0.00  0.00    +0.000 A 
BRANCH  27  31
ATOM     31  C   UNL     1     -12.168  13.682  64.230  0.00  0.00    +0.388 C 
ATOM     32  O   UNL     1     -12.454  12.974  63.070  0.00  0.00    -0.241 OA
ATOM     33  O   UNL     1     -12.537  14.890  64.262  0.00  0.00    -0.241 OA
ENDBRANCH  27  31
ENDBRANCH  21  25
ENDBRANCH   1  18
TORSDOF 5
ENDMDL
