MODEL 1
REMARK VINA RESULT:      -4.5      0.000      0.000
REMARK  Name = 
REMARK  0 active torsions:
REMARK  status: ('A' for Active; 'I' for Inactive)
REMARK                            x       y       z     vdW  Elec       q    Type
REMARK                         _______ _______ _______ _____ _____    ______ ____
ROOT
ATOM      1  C   UNL     1     -10.592  15.132  65.001  0.00  0.00    +0.000 C 
ATOM      2  C   UNL     1     -10.531  14.061  65.677  0.00  0.00    +0.007 C 
ATOM      3  C   UNL     1     -11.082  12.851  65.010  0.00  0.00    +0.052 C 
ATOM      4  C   UNL     1     -12.336  13.552  64.587  0.00  0.00    +0.150 C 
ATOM      5  C   UNL     1     -12.954  13.880  65.854  0.00  0.00    +0.064 C 
ATOM      6  O   UNL     1     -12.466  14.065  63.509  0.00  0.00    -0.296 OA
ATOM      7  C   UNL     1     -10.257  12.317  63.935  0.00  0.00    +0.007 C 
ATOM      8  C   UNL     1     -11.476  11.947  66.114  0.00  0.00    +0.007 C 
ATOM      9  C   UNL     1     -11.530  12.719  67.377  0.00  0.00    +0.001 C 
ATOM     10  C   UNL     1     -11.689  14.268  66.832  0.00  0.00    +0.008 C 
ATOM     11  C   UNL     1      -9.313  13.834  66.511  0.00  0.00    +0.000 C 
ENDROOT
TORSDOF 0
ENDMDL
MODEL 2
REMARK VINA RESULT:      -4.4      1.068      2.260
REMARK  Name = 
REMARK  0 active torsions:
REMARK  status: ('A' for Active; 'I' for Inactive)
REMARK                            x       y       z     vdW  Elec       q    Type
REMARK                         _______ _______ _______ _____ _____    ______ ____
ROOT
ATOM      1  C   UNL     1     -10.353  12.478  64.812  0.00  0.00    +0.000 C 
ATOM      2  C   UNL     1     -10.366  13.283  65.791  0.00  0.00    +0.007 C 
ATOM      3  C   UNL     1     -11.625  13.308  66.582  0.00  0.00    +0.052 C 
ATOM      4  C   UNL     1     -12.488  13.397  65.362  0.00  0.00    +0.150 C 
ATOM      5  C   UNL     1     -12.102  14.671  64.796  0.00  0.00    +0.064 C 
ATOM      6  O   UNL     1     -12.975  12.434  64.834  0.00  0.00    -0.296 OA
ATOM      7  C   UNL     1     -11.838  12.144  67.430  0.00  0.00    +0.007 C 
ATOM      8  C   UNL     1     -11.664  14.652  67.203  0.00  0.00    +0.007 C 
ATOM      9  C   UNL     1     -10.690  15.531  66.517  0.00  0.00    +0.001 C 
ATOM     10  C   UNL     1     -10.482  14.761  65.073  0.00  0.00    +0.008 C 
ATOM     11  C   UNL     1      -9.109  13.433  66.584  0.00  0.00    +0.000 C 
ENDROOT
TORSDOF 0
ENDMDL
MODEL 3
REMARK VINA RESULT:      -4.2      1.294      2.499
REMARK  Name = 
REMARK  0 active torsions:
REMARK  status: ('A' for Active; 'I' for Inactive)
REMARK                            x       y       z     vdW  Elec       q    Type
REMARK                         _______ _______ _______ _____ _____    ______ ____
ROOT
ATOM      1  C   UNL     1     -11.946  14.427  67.352  0.00  0.00    +0.000 C 
ATOM      2  C   UNL     1     -11.529  13.477  66.623  0.00  0.00    +0.007 C 
ATOM      3  C   UNL     1     -10.322  13.779  65.808  0.00  0.00    +0.052 C 
ATOM      4  C   UNL     1     -10.875  15.082  65.321  0.00  0.00    +0.150 C 
ATOM      5  C   UNL     1     -12.033  14.667  64.559  0.00  0.00    +0.064 C 
ATOM      6  O   UNL     1     -10.637  16.133  65.852  0.00  0.00    -0.296 OA
ATOM      7  C   UNL     1      -9.079  13.855  66.562  0.00  0.00    +0.007 C 
ATOM      8  C   UNL     1     -10.395  12.853  64.655  0.00  0.00    +0.007 C 
ATOM      9  C   UNL     1     -11.764  12.296  64.565  0.00  0.00    +0.001 C 
ATOM     10  C   UNL     1     -12.646  13.402  65.414  0.00  0.00    +0.008 C 
ATOM     11  C   UNL     1     -11.596  12.092  67.180  0.00  0.00    +0.000 C 
ENDROOT
TORSDOF 0
ENDMDL
MODEL 4
REMARK VINA RESULT:      -4.1      4.846      6.273
REMARK  Name = 
REMARK  0 active torsions:
REMARK  status: ('A' for Active; 'I' for Inactive)
REMARK                            x       y       z     vdW  Elec       q    Type
REMARK                         _______ _______ _______ _____ _____    ______ ____
ROOT
ATOM      1  C   UNL     1      -9.632  17.278  66.196  0.00  0.00    +0.000 C 
ATOM      2  C   UNL     1      -8.708  17.977  66.710  0.00  0.00    +0.007 C 
ATOM      3  C   UNL     1      -8.673  17.995  68.197  0.00  0.00    +0.052 C 
ATOM      4  C   UNL     1     -10.142  18.260  68.313  0.00  0.00    +0.150 C 
ATOM      5  C   UNL     1     -10.275  19.561  67.694  0.00  0.00    +0.064 C 
ATOM      6  O   UNL     1     -10.954  17.388  68.457  0.00  0.00    -0.296 OA
ATOM      7  C   UNL     1      -8.197  16.764  68.813  0.00  0.00    +0.007 C 
ATOM      8  C   UNL     1      -8.003  19.267  68.552  0.00  0.00    +0.007 C 
ATOM      9  C   UNL     1      -7.987  20.153  67.365  0.00  0.00    +0.001 C 
ATOM     10  C   UNL     1      -9.203  19.526  66.445  0.00  0.00    +0.008 C 
ATOM     11  C   UNL     1      -7.374  17.969  66.038  0.00  0.00    +0.000 C 
ENDROOT
TORSDOF 0
ENDMDL
MODEL 5
REMARK VINA RESULT:      -4.1      4.993      6.387
REMARK  Name = 
REMARK  0 active torsions:
REMARK  status: ('A' for Active; 'I' for Inactive)
REMARK                            x       y       z     vdW  Elec       q    Type
REMARK                         _______ _______ _______ _____ _____    ______ ____
ROOT
ATOM      1  C   UNL     1      -7.960  17.353  66.478  0.00  0.00    +0.000 C 
ATOM      2  C   UNL     1      -8.499  18.459  66.782  0.00  0.00    +0.007 C 
ATOM      3  C   UNL     1      -8.664  18.712  68.238  0.00  0.00    +0.052 C 
ATOM      4  C   UNL     1      -9.243  17.355  68.493  0.00  0.00    +0.150 C 
ATOM      5  C   UNL     1     -10.471  17.388  67.728  0.00  0.00    +0.064 C 
ATOM      6  O   UNL     1      -8.580  16.418  68.848  0.00  0.00    -0.296 OA
ATOM      7  C   UNL     1      -7.432  19.024  68.949  0.00  0.00    +0.007 C 
ATOM      8  C   UNL     1      -9.798  19.660  68.339  0.00  0.00    +0.007 C 
ATOM      9  C   UNL     1     -10.531  19.676  67.053  0.00  0.00    +0.001 C 
ATOM     10  C   UNL     1     -10.081  18.241  66.376  0.00  0.00    +0.008 C 
ATOM     11  C   UNL     1      -8.141  19.656  65.961  0.00  0.00    +0.000 C 
ENDROOT
TORSDOF 0
ENDMDL
MODEL 6
REMARK VINA RESULT:      -4.1      1.642      3.043
REMARK  Name = 
REMARK  0 active torsions:
REMARK  status: ('A' for Active; 'I' for Inactive)
REMARK                            x       y       z     vdW  Elec       q    Type
REMARK                         _______ _______ _______ _____ _____    ______ ____
ROOT
ATOM      1  C   UNL     1      -9.370  13.684  66.518  0.00  0.00    +0.000 C 
ATOM      2  C   UNL     1     -10.415  14.150  65.972  0.00  0.00    +0.007 C 
ATOM      3  C   UNL     1     -11.697  13.790  66.635  0.00  0.00    +0.052 C 
ATOM      4  C   UNL     1     -11.333  12.342  66.739  0.00  0.00    +0.150 C 
ATOM      5  C   UNL     1     -11.234  11.942  65.352  0.00  0.00    +0.064 C 
ATOM      6  O   UNL     1     -10.826  11.864  67.718  0.00  0.00    -0.296 OA
ATOM      7  C   UNL     1     -11.949  14.477  67.894  0.00  0.00    +0.007 C 
ATOM      8  C   UNL     1     -12.720  13.874  65.568  0.00  0.00    +0.007 C 
ATOM      9  C   UNL     1     -12.044  13.897  64.250  0.00  0.00    +0.001 C 
ATOM     10  C   UNL     1     -10.570  13.248  64.602  0.00  0.00    +0.008 C 
ATOM     11  C   UNL     1     -10.349  15.534  65.414  0.00  0.00    +0.000 C 
ENDROOT
TORSDOF 0
ENDMDL
MODEL 7
REMARK VINA RESULT:      -4.0      4.350      5.739
REMARK  Name = 
REMARK  0 active torsions:
REMARK  status: ('A' for Active; 'I' for Inactive)
REMARK                            x       y       z     vdW  Elec       q    Type
REMARK                         _______ _______ _______ _____ _____    ______ ____
ROOT
ATOM      1  C   UNL     1      -8.363  16.670  66.351  0.00  0.00    +0.000 C 
ATOM      2  C   UNL     1      -8.501  17.301  67.441  0.00  0.00    +0.007 C 
ATOM      3  C   UNL     1      -9.877  17.789  67.728  0.00  0.00    +0.052 C 
ATOM      4  C   UNL     1     -10.049  18.362  66.355  0.00  0.00    +0.150 C 
ATOM      5  C   UNL     1      -9.035  19.393  66.316  0.00  0.00    +0.064 C 
ATOM      6  O   UNL     1     -10.573  17.761  65.457  0.00  0.00    -0.296 OA
ATOM      7  C   UNL     1     -10.826  16.753  68.110  0.00  0.00    +0.007 C 
ATOM      8  C   UNL     1      -9.695  18.949  68.630  0.00  0.00    +0.007 C 
ATOM      9  C   UNL     1      -8.280  19.384  68.580  0.00  0.00    +0.001 C 
ATOM     10  C   UNL     1      -7.770  18.747  67.146  0.00  0.00    +0.008 C 
ATOM     11  C   UNL     1      -7.735  16.814  68.628  0.00  0.00    +0.000 C 
ENDROOT
TORSDOF 0
ENDMDL
MODEL 8
REMARK VINA RESULT:      -4.0      4.696      6.086
REMARK  Name = 
REMARK  0 active torsions:
REMARK  status: ('A' for Active; 'I' for Inactive)
REMARK                            x       y       z     vdW  Elec       q    Type
REMARK                         _______ _______ _______ _____ _____    ______ ____
ROOT
ATOM      1  C   UNL     1      -8.075  17.087  68.084  0.00  0.00    +0.000 C 
ATOM      2  C   UNL     1      -9.160  17.738  68.007  0.00  0.00    +0.007 C 
ATOM      3  C   UNL     1      -9.628  18.039  66.628  0.00  0.00    +0.052 C 
ATOM      4  C   UNL     1      -8.281  18.523  66.187  0.00  0.00    +0.150 C 
ATOM      5  C   UNL     1      -8.075  19.684  67.025  0.00  0.00    +0.064 C 
ATOM      6  O   UNL     1      -7.480  17.816  65.637  0.00  0.00    -0.296 OA
ATOM      7  C   UNL     1     -10.165  16.898  65.900  0.00  0.00    +0.007 C 
ATOM      8  C   UNL     1     -10.468  19.251  66.761  0.00  0.00    +0.007 C 
ATOM      9  C   UNL     1     -10.208  19.878  68.077  0.00  0.00    +0.001 C 
ATOM     10  C   UNL     1      -8.732  19.259  68.473  0.00  0.00    +0.008 C 
ATOM     11  C   UNL     1     -10.236  17.414  68.991  0.00  0.00    +0.000 C 
ENDROOT
TORSDOF 0
ENDMDL
MODEL 9
REMARK VINA RESULT:      -4.0      4.742      6.240
REMARK  Name = 
REMARK  0 active torsions:
REMARK  status: ('A' for Active; 'I' for Inactive)
REMARK                            x       y       z     vdW  Elec       q    Type
REMARK                         _______ _______ _______ _____ _____    ______ ____
ROOT
ATOM      1  C   UNL     1     -10.429  17.541  68.133  0.00  0.00    +0.000 C 
ATOM      2  C   UNL     1      -9.650  18.533  68.014  0.00  0.00    +0.007 C 
ATOM      3  C   UNL     1      -9.373  18.964  66.617  0.00  0.00    +0.052 C 
ATOM      4  C   UNL     1      -9.094  17.568  66.153  0.00  0.00    +0.150 C 
ATOM      5  C   UNL     1      -7.921  17.211  66.921  0.00  0.00    +0.064 C 
ATOM      6  O   UNL     1      -9.929  16.867  65.649  0.00  0.00    -0.296 OA
ATOM      7  C   UNL     1     -10.478  19.646  65.957  0.00  0.00    +0.007 C 
ATOM      8  C   UNL     1      -8.058  19.641  66.676  0.00  0.00    +0.007 C 
ATOM      9  C   UNL     1      -7.392  19.297  67.953  0.00  0.00    +0.001 C 
ATOM     10  C   UNL     1      -8.172  17.911  68.389  0.00  0.00    +0.008 C 
ATOM     11  C   UNL     1      -9.773  19.638  69.012  0.00  0.00    +0.000 C 
ENDROOT
TORSDOF 0
ENDMDL
