MODEL 1
REMARK VINA RESULT:      -7.5      0.000      0.000
REMARK  Name = 
REMARK  6 active torsions:
REMARK  status: ('A' for Active; 'I' for Inactive)
REMARK    1  A    between atoms: C_2  and  C_3
REMARK    2  A    between atoms: C_3  and  C_4
REMARK    3  A    between atoms: C_4  and  C_5
REMARK    4  A    between atoms: C_5  and  O_6
REMARK    5  A    between atoms: O_6  and  C_7
REMARK    6  A    between atoms: N_14  and  C_15
REMARK                            x       y       z     vdW  Elec       q    Type
REMARK                         _______ _______ _______ _____ _____    ______ ____
ROOT
ATOM      1  C   UNL     1     -11.598  12.273  66.312  0.00  0.00    +0.427 C 
ATOM      2  N   UNL     1     -10.442  13.043  66.354  0.00  0.00    -0.121 NA
ATOM      3  C   UNL     1     -10.571  14.428  66.407  0.00  0.00    +0.191 A 
ATOM      4  C   UNL     1     -10.732  15.019  67.662  0.00  0.00    +0.191 A 
ATOM      5  F   UNL     1     -11.862  14.550  68.260  0.00  0.00    -0.200 F 
ATOM      6  C   UNL     1     -10.508  16.407  67.814  0.00  0.00    +0.115 A 
ATOM      7  N   UNL     1     -10.056  17.029  66.685  0.00  0.00    -0.251 N 
ATOM      8  C   UNL     1     -10.486  16.440  65.537  0.00  0.00    +0.353 A 
ATOM      9  O   UNL     1     -11.227  16.975  64.667  0.00  0.00    -0.244 OA
ATOM     10  N   UNL     1     -10.064  15.166  65.361  0.00  0.00    -0.173 NA
ATOM     11  O   UNL     1     -12.373  12.477  65.334  0.00  0.00    -0.224 OA
ENDROOT
BRANCH   7  12
ATOM     12  C   UNL     1     -10.253  18.659  66.762  0.00  0.00    +0.242 C 
ATOM     13  C   UNL     1      -8.751  19.223  67.575  0.00  0.00    +0.234 C 
ATOM     14  O   UNL     1      -8.352  20.229  66.547  0.00  0.00    -0.216 OA
ATOM     15  C   UNL     1      -7.995  17.892  66.912  0.00  0.00    +0.214 C 
ATOM     16  O   UNL     1      -7.422  18.514  65.624  0.00  0.00    -0.218 OA
ATOM     17  C   UNL     1      -9.663  18.008  66.535  0.00  0.00    +0.150 C 
ATOM     18  C   UNL     1     -10.202  18.789  67.988  0.00  0.00    +0.035 C 
ATOM     19  O   UNL     1      -9.571  19.078  65.550  0.00  0.00    -0.333 OA
ENDBRANCH   7  12
BRANCH   1  20
ATOM     20  O   UNL     1     -12.102  11.432  67.270  0.00  0.00    -0.433 OA
BRANCH  20  21
ATOM     21  C   UNL     1     -11.259  10.849  68.207  0.00  0.00    +0.210 C 
BRANCH  21  22
ATOM     22  C   UNL     1     -11.722  11.431  69.522  0.00  0.00    +0.048 C 
BRANCH  22  23
ATOM     23  C   UNL     1     -11.681  10.391  70.604  0.00  0.00    +0.004 C 
BRANCH  23  25
ATOM     24  C   UNL     1     -13.354   9.391  72.128  0.00  0.00    +0.000 C 
ATOM     25  C   UNL     1     -12.934  10.641  71.416  0.00  0.00    +0.000 C 
ENDBRANCH  23  25
ENDBRANCH  22  23
ENDBRANCH  21  22
ENDBRANCH  20  21
ENDBRANCH   1  20
TORSDOF 6
ENDMDL
MODEL 2
REMARK VINA RESULT:      -7.1      2.551      2.922
REMARK  Name = 
REMARK  6 active torsions:
REMARK  status: ('A' for Active; 'I' for Inactive)
REMARK    1  A    between atoms: C_2  and  C_3
REMARK    2  A    between atoms: C_3  and  C_4
REMARK    3  A    between atoms: C_4  and  C_5
REMARK    4  A    between atoms: C_5  and  O_6
REMARK    5  A    between atoms: O_6  and  C_7
REMARK    6  A    between atoms: N_14  and  C_15
REMARK                            x       y       z     vdW  Elec       q    Type
REMARK                         _______ _______ _______ _____ _____    ______ ____
ROOT
ATOM      1  C   UNL     1     -11.539  13.542  68.834  0.00  0.00    +0.427 C 
ATOM      2  N   UNL     1     -10.315  14.200  68.876  0.00  0.00    -0.121 NA
ATOM      3  C   UNL     1     -10.194  15.417  68.212  0.00  0.00    +0.191 A 
ATOM      4  C   UNL     1     -10.577  16.572  68.898  0.00  0.00    +0.191 A 
ATOM      5  F   UNL     1     -11.893  16.501  69.240  0.00  0.00    -0.200 F 
ATOM      6  C   UNL     1     -10.149  17.836  68.429  0.00  0.00    +0.115 A 
ATOM      7  N   UNL     1      -9.301  17.780  67.359  0.00  0.00    -0.251 N 
ATOM      8  C   UNL     1      -9.506  16.694  66.567  0.00  0.00    +0.353 A 
ATOM      9  O   UNL     1      -9.872  16.722  65.360  0.00  0.00    -0.244 OA
ATOM     10  N   UNL     1      -9.296  15.503  67.173  0.00  0.00    -0.173 NA
ATOM     11  O   UNL     1     -11.968  13.231  67.685  0.00  0.00    -0.224 OA
ENDROOT
BRANCH   7  12
ATOM     12  C   UNL     1      -9.206  19.222  66.575  0.00  0.00    +0.242 C 
ATOM     13  C   UNL     1      -7.987  20.136  67.530  0.00  0.00    +0.234 C 
ATOM     14  O   UNL     1      -7.087  20.487  66.393  0.00  0.00    -0.216 OA
ATOM     15  C   UNL     1      -7.313  18.661  67.923  0.00  0.00    +0.214 C 
ATOM     16  O   UNL     1      -6.236  18.551  66.827  0.00  0.00    -0.218 OA
ATOM     17  C   UNL     1      -8.706  18.552  66.929  0.00  0.00    +0.150 C 
ATOM     18  C   UNL     1      -9.546  19.956  67.507  0.00  0.00    +0.035 C 
ATOM     19  O   UNL     1      -8.092  18.975  65.677  0.00  0.00    -0.333 OA
ENDBRANCH   7  12
BRANCH   1  20
ATOM     20  O   UNL     1     -12.430  13.324  69.851  0.00  0.00    -0.433 OA
BRANCH  20  21
ATOM     21  C   UNL     1     -12.214  13.880  71.105  0.00  0.00    +0.210 C 
BRANCH  21  22
ATOM     22  C   UNL     1     -13.604  14.052  71.670  0.00  0.00    +0.048 C 
BRANCH  22  23
ATOM     23  C   UNL     1     -13.792  15.443  72.200  0.00  0.00    +0.004 C 
BRANCH  23  25
ATOM     24  C   UNL     1     -12.491  15.718  74.287  0.00  0.00    +0.000 C 
ATOM     25  C   UNL     1     -12.447  15.807  72.792  0.00  0.00    +0.000 C 
ENDBRANCH  23  25
ENDBRANCH  22  23
ENDBRANCH  21  22
ENDBRANCH  20  21
ENDBRANCH   1  20
TORSDOF 6
ENDMDL
MODEL 3
REMARK VINA RESULT:      -6.9      3.246      6.918
REMARK  Name = 
REMARK  6 active torsions:
REMARK  status: ('A' for Active; 'I' for Inactive)
REMARK    1  A    between atoms: C_2  and  C_3
REMARK    2  A    between atoms: C_3  and  C_4
REMARK    3  A    between atoms: C_4  and  C_5
REMARK    4  A    between atoms: C_5  and  O_6
REMARK    5  A    between atoms: O_6  and  C_7
REMARK    6  A    between atoms: N_14  and  C_15
REMARK                            x       y       z     vdW  Elec       q    Type
REMARK                         _______ _______ _______ _____ _____    ______ ____
ROOT
ATOM      1  C   UNL     1      -7.046  16.031  68.357  0.00  0.00    +0.427 C 
ATOM      2  N   UNL     1      -7.285  15.029  67.424  0.00  0.00    -0.121 NA
ATOM      3  C   UNL     1      -8.597  14.798  67.022  0.00  0.00    +0.191 A 
ATOM      4  C   UNL     1      -9.102  15.571  65.976  0.00  0.00    +0.191 A 
ATOM      5  F   UNL     1      -9.078  16.890  66.312  0.00  0.00    -0.200 F 
ATOM      6  C   UNL     1     -10.269  15.150  65.296  0.00  0.00    +0.115 A 
ATOM      7  N   UNL     1     -10.746  13.935  65.700  0.00  0.00    -0.251 N 
ATOM      8  C   UNL     1     -10.469  13.655  67.002  0.00  0.00    +0.353 A 
ATOM      9  O   UNL     1     -11.323  13.488  67.916  0.00  0.00    -0.244 OA
ATOM     10  N   UNL     1      -9.152  13.567  67.295  0.00  0.00    -0.173 NA
ATOM     11  O   UNL     1      -7.619  15.903  69.476  0.00  0.00    -0.224 OA
ENDROOT
BRANCH   7  12
ATOM     12  C   UNL     1     -12.308  13.706  65.241  0.00  0.00    +0.242 C 
ATOM     13  C   UNL     1     -12.168  13.213  63.517  0.00  0.00    +0.234 C 
ATOM     14  O   UNL     1     -12.962  11.955  63.619  0.00  0.00    -0.216 OA
ATOM     15  C   UNL     1     -10.672  12.586  63.906  0.00  0.00    +0.214 C 
ATOM     16  O   UNL     1     -11.056  11.122  64.197  0.00  0.00    -0.218 OA
ATOM     17  C   UNL     1     -11.481  13.331  65.221  0.00  0.00    +0.150 C 
ATOM     18  C   UNL     1     -12.353  14.541  64.334  0.00  0.00    +0.035 C 
ATOM     19  O   UNL     1     -12.458  12.281  65.476  0.00  0.00    -0.333 OA
ENDBRANCH   7  12
BRANCH   1  20
ATOM     20  O   UNL     1      -6.404  17.229  68.181  0.00  0.00    -0.433 OA
BRANCH  20  21
ATOM     21  C   UNL     1      -6.721  18.319  68.980  0.00  0.00    +0.210 C 
BRANCH  21  22
ATOM     22  C   UNL     1      -7.483  19.238  68.054  0.00  0.00    +0.048 C 
BRANCH  22  23
ATOM     23  C   UNL     1      -8.920  19.340  68.476  0.00  0.00    +0.004 C 
BRANCH  23  25
ATOM     24  C   UNL     1     -10.630  19.651  66.715  0.00  0.00    +0.000 C 
ATOM     25  C   UNL     1      -9.534  20.314  67.493  0.00  0.00    +0.000 C 
ENDBRANCH  23  25
ENDBRANCH  22  23
ENDBRANCH  21  22
ENDBRANCH  20  21
ENDBRANCH   1  20
TORSDOF 6
ENDMDL
MODEL 4
REMARK VINA RESULT:      -6.9      3.002      7.346
REMARK  Name = 
REMARK  6 active torsions:
REMARK  status: ('A' for Active; 'I' for Inactive)
REMARK    1  A    between atoms: C_2  and  C_3
REMARK    2  A    between atoms: C_3  and  C_4
REMARK    3  A    between atoms: C_4  and  C_5
REMARK    4  A    between atoms: C_5  and  O_6
REMARK    5  A    between atoms: O_6  and  C_7
REMARK    6  A    between atoms: N_14  and  C_15
REMARK                            x       y       z     vdW  Elec       q    Type
REMARK                         _______ _______ _______ _____ _____    ______ ____
ROOT
ATOM      1  C   UNL     1      -8.381  19.005  67.091  0.00  0.00    +0.427 C 
ATOM      2  N   UNL     1      -9.326  18.049  67.444  0.00  0.00    -0.121 NA
ATOM      3  C   UNL     1      -9.671  17.081  66.505  0.00  0.00    +0.191 A 
ATOM      4  C   UNL     1      -8.878  15.934  66.433  0.00  0.00    +0.191 A 
ATOM      5  F   UNL     1      -7.595  16.269  66.120  0.00  0.00    -0.200 F 
ATOM      6  C   UNL     1      -9.372  14.784  65.775  0.00  0.00    +0.115 A 
ATOM      7  N   UNL     1     -10.661  14.898  65.337  0.00  0.00    -0.251 N 
ATOM      8  C   UNL     1     -11.012  16.175  65.025  0.00  0.00    +0.353 A 
ATOM      9  O   UNL     1     -11.347  16.587  63.880  0.00  0.00    -0.244 OA
ATOM     10  N   UNL     1     -10.974  17.043  66.062  0.00  0.00    -0.173 NA
ATOM     11  O   UNL     1      -8.663  19.730  66.094  0.00  0.00    -0.224 OA
ENDROOT
BRANCH   7  12
ATOM     12  C   UNL     1     -11.028  13.764  64.205  0.00  0.00    +0.242 C 
ATOM     13  C   UNL     1     -11.888  12.497  65.148  0.00  0.00    +0.234 C 
ATOM     14  O   UNL     1     -13.113  12.434  64.298  0.00  0.00    -0.216 OA
ATOM     15  C   UNL     1     -12.374  13.715  66.179  0.00  0.00    +0.214 C 
ATOM     16  O   UNL     1     -13.746  14.061  65.568  0.00  0.00    -0.218 OA
ATOM     17  C   UNL     1     -11.376  14.247  64.891  0.00  0.00    +0.150 C 
ATOM     18  C   UNL     1     -10.417  12.812  64.699  0.00  0.00    +0.035 C 
ATOM     19  O   UNL     1     -12.368  14.175  63.827  0.00  0.00    -0.333 OA
ENDBRANCH   7  12
BRANCH   1  20
ATOM     20  O   UNL     1      -7.109  19.170  67.572  0.00  0.00    -0.433 OA
BRANCH  20  21
ATOM     21  C   UNL     1      -6.611  18.317  68.549  0.00  0.00    +0.210 C 
BRANCH  21  22
ATOM     22  C   UNL     1      -6.226  19.245  69.677  0.00  0.00    +0.048 C 
BRANCH  22  23
ATOM     23  C   UNL     1      -5.654  20.524  69.138  0.00  0.00    +0.004 C 
BRANCH  23  25
ATOM     24  C   UNL     1      -5.080  20.324  71.536  0.00  0.00    +0.000 C 
ATOM     25  C   UNL     1      -4.789  21.055  70.261  0.00  0.00    +0.000 C 
ENDBRANCH  23  25
ENDBRANCH  22  23
ENDBRANCH  21  22
ENDBRANCH  20  21
ENDBRANCH   1  20
TORSDOF 6
ENDMDL
MODEL 5
REMARK VINA RESULT:      -6.8      4.137      8.876
REMARK  Name = 
REMARK  6 active torsions:
REMARK  status: ('A' for Active; 'I' for Inactive)
REMARK    1  A    between atoms: C_2  and  C_3
REMARK    2  A    between atoms: C_3  and  C_4
REMARK    3  A    between atoms: C_4  and  C_5
REMARK    4  A    between atoms: C_5  and  O_6
REMARK    5  A    between atoms: O_6  and  C_7
REMARK    6  A    between atoms: N_14  and  C_15
REMARK                            x       y       z     vdW  Elec       q    Type
REMARK                         _______ _______ _______ _____ _____    ______ ____
ROOT
ATOM      1  C   UNL     1     -11.569  13.201  68.429  0.00  0.00    +0.427 C 
ATOM      2  N   UNL     1     -11.926  11.862  68.328  0.00  0.00    -0.121 NA
ATOM      3  C   UNL     1     -11.440  10.973  69.283  0.00  0.00    +0.191 A 
ATOM      4  C   UNL     1     -12.161  10.836  70.470  0.00  0.00    +0.191 A 
ATOM      5  F   UNL     1     -12.227  12.030  71.121  0.00  0.00    -0.200 F 
ATOM      6  C   UNL     1     -11.932   9.715  71.302  0.00  0.00    +0.115 A 
ATOM      7  N   UNL     1     -11.051   8.806  70.787  0.00  0.00    -0.251 N 
ATOM      8  C   UNL     1     -10.117   9.364  69.971  0.00  0.00    +0.353 A 
ATOM      9  O   UNL     1      -8.872   9.376  70.177  0.00  0.00    -0.244 OA
ATOM     10  N   UNL     1     -10.615   9.955  68.860  0.00  0.00    -0.173 NA
ATOM     11  O   UNL     1     -10.331  13.455  68.384  0.00  0.00    -0.224 OA
ENDROOT
BRANCH   7  12
ATOM     12  C   UNL     1     -10.468   7.793  71.943  0.00  0.00    +0.242 C 
ATOM     13  C   UNL     1     -11.705   6.489  72.016  0.00  0.00    +0.234 C 
ATOM     14  O   UNL     1     -10.773   5.340  71.822  0.00  0.00    -0.216 OA
ATOM     15  C   UNL     1     -12.021   6.815  70.411  0.00  0.00    +0.214 C 
ATOM     16  O   UNL     1     -11.102   5.779  69.735  0.00  0.00    -0.218 OA
ATOM     17  C   UNL     1     -10.814   7.817  71.104  0.00  0.00    +0.150 C 
ATOM     18  C   UNL     1     -11.416   7.856  72.731  0.00  0.00    +0.035 C 
ATOM     19  O   UNL     1      -9.734   6.840  71.130  0.00  0.00    -0.333 OA
ENDBRANCH   7  12
BRANCH   1  20
ATOM     20  O   UNL     1     -12.359  14.277  68.735  0.00  0.00    -0.433 OA
BRANCH  20  21
ATOM     21  C   UNL     1     -11.875  15.296  69.546  0.00  0.00    +0.210 C 
BRANCH  21  22
ATOM     22  C   UNL     1     -12.797  15.276  70.743  0.00  0.00    +0.048 C 
BRANCH  22  23
ATOM     23  C   UNL     1     -12.062  15.691  71.984  0.00  0.00    +0.004 C 
BRANCH  23  25
ATOM     24  C   UNL     1     -12.463  15.629  74.424  0.00  0.00    +0.000 C 
ATOM     25  C   UNL     1     -12.792  14.990  73.109  0.00  0.00    +0.000 C 
ENDBRANCH  23  25
ENDBRANCH  22  23
ENDBRANCH  21  22
ENDBRANCH  20  21
ENDBRANCH   1  20
TORSDOF 6
ENDMDL
MODEL 6
REMARK VINA RESULT:      -6.6      2.369      3.755
REMARK  Name = 
REMARK  6 active torsions:
REMARK  status: ('A' for Active; 'I' for Inactive)
REMARK    1  A    between atoms: C_2  and  C_3
REMARK    2  A    between atoms: C_3  and  C_4
REMARK    3  A    between atoms: C_4  and  C_5
REMARK    4  A    between atoms: C_5  and  O_6
REMARK    5  A    between atoms: O_6  and  C_7
REMARK    6  A    between atoms: N_14  and  C_15
REMARK                            x       y       z     vdW  Elec       q    Type
REMARK                         _______ _______ _______ _____ _____    ______ ____
ROOT
ATOM      1  C   UNL     1     -11.706  12.168  67.383  0.00  0.00    +0.427 C 
ATOM      2  N   UNL     1     -11.975  13.459  66.945  0.00  0.00    -0.121 NA
ATOM      3  C   UNL     1     -11.047  14.459  67.220  0.00  0.00    +0.191 A 
ATOM      4  C   UNL     1      -9.987  14.626  66.327  0.00  0.00    +0.191 A 
ATOM      5  F   UNL     1      -9.246  13.485  66.259  0.00  0.00    -0.200 F 
ATOM      6  C   UNL     1      -9.236  15.824  66.350  0.00  0.00    +0.115 A 
ATOM      7  N   UNL     1      -9.705  16.763  67.226  0.00  0.00    -0.251 N 
ATOM      8  C   UNL     1     -10.332  16.226  68.306  0.00  0.00    +0.353 A 
ATOM      9  O   UNL     1      -9.957  16.338  69.506  0.00  0.00    -0.244 OA
ATOM     10  N   UNL     1     -11.442  15.509  68.019  0.00  0.00    -0.173 NA
ATOM     11  O   UNL     1     -11.558  12.019  68.630  0.00  0.00    -0.224 OA
ENDROOT
BRANCH   7  12
ATOM     12  C   UNL     1      -8.576  17.911  67.558  0.00  0.00    +0.242 C 
ATOM     13  C   UNL     1      -8.901  19.184  66.329  0.00  0.00    +0.234 C 
ATOM     14  O   UNL     1      -9.030  20.328  67.279  0.00  0.00    -0.216 OA
ATOM     15  C   UNL     1     -10.490  18.676  66.348  0.00  0.00    +0.214 C 
ATOM     16  O   UNL     1     -11.078  19.654  67.383  0.00  0.00    -0.218 OA
ATOM     17  C   UNL     1      -9.460  17.786  67.390  0.00  0.00    +0.150 C 
ATOM     18  C   UNL     1      -7.993  17.911  66.470  0.00  0.00    +0.035 C 
ATOM     19  O   UNL     1      -9.325  18.787  68.441  0.00  0.00    -0.333 OA
ENDBRANCH   7  12
BRANCH   1  20
ATOM     20  O   UNL     1     -11.415  11.054  66.640  0.00  0.00    -0.433 OA
BRANCH  20  21
ATOM     21  C   UNL     1     -10.211  10.386  66.817  0.00  0.00    +0.210 C 
BRANCH  21  22
ATOM     22  C   UNL     1      -9.467  10.631  65.525  0.00  0.00    +0.048 C 
BRANCH  22  23
ATOM     23  C   UNL     1     -10.390  10.495  64.350  0.00  0.00    +0.004 C 
BRANCH  23  25
ATOM     24  C   UNL     1     -11.496  12.515  63.446  0.00  0.00    +0.000 C 
ATOM     25  C   UNL     1     -10.198  11.776  63.567  0.00  0.00    +0.000 C 
ENDBRANCH  23  25
ENDBRANCH  22  23
ENDBRANCH  21  22
ENDBRANCH  20  21
ENDBRANCH   1  20
TORSDOF 6
ENDMDL
MODEL 7
REMARK VINA RESULT:      -6.6      2.997      4.519
REMARK  Name = 
REMARK  6 active torsions:
REMARK  status: ('A' for Active; 'I' for Inactive)
REMARK    1  A    between atoms: C_2  and  C_3
REMARK    2  A    between atoms: C_3  and  C_4
REMARK    3  A    between atoms: C_4  and  C_5
REMARK    4  A    between atoms: C_5  and  O_6
REMARK    5  A    between atoms: O_6  and  C_7
REMARK    6  A    between atoms: N_14  and  C_15
REMARK                            x       y       z     vdW  Elec       q    Type
REMARK                         _______ _______ _______ _____ _____    ______ ____
ROOT
ATOM      1  C   UNL     1     -10.513  15.822  65.333  0.00  0.00    +0.427 C 
ATOM      2  N   UNL     1      -9.176  15.855  65.709  0.00  0.00    -0.121 NA
ATOM      3  C   UNL     1      -8.686  17.009  66.313  0.00  0.00    +0.191 A 
ATOM      4  C   UNL     1      -8.838  17.134  67.695  0.00  0.00    +0.191 A 
ATOM      5  F   UNL     1     -10.158  17.112  68.027  0.00  0.00    -0.200 F 
ATOM      6  C   UNL     1      -8.061  18.083  68.400  0.00  0.00    +0.115 A 
ATOM      7  N   UNL     1      -7.146  18.743  67.628  0.00  0.00    -0.251 N 
ATOM      8  C   UNL     1      -7.531  18.874  66.331  0.00  0.00    +0.353 A 
ATOM      9  O   UNL     1      -7.750  19.964  65.734  0.00  0.00    -0.244 OA
ATOM     10  N   UNL     1      -7.690  17.706  65.666  0.00  0.00    -0.173 NA
ATOM     11  O   UNL     1     -10.884  16.701  64.503  0.00  0.00    -0.224 OA
ENDROOT
BRANCH   7  12
ATOM     12  C   UNL     1      -6.612  20.119  68.352  0.00  0.00    +0.242 C 
ATOM     13  C   UNL     1      -5.154  19.576  69.256  0.00  0.00    +0.234 C 
ATOM     14  O   UNL     1      -4.205  20.581  68.694  0.00  0.00    -0.216 OA
ATOM     15  C   UNL     1      -4.975  18.398  68.089  0.00  0.00    +0.214 C 
ATOM     16  O   UNL     1      -4.002  19.108  67.128  0.00  0.00    -0.218 OA
ATOM     17  C   UNL     1      -6.344  19.404  67.861  0.00  0.00    +0.150 C 
ATOM     18  C   UNL     1      -6.691  19.747  69.527  0.00  0.00    +0.035 C 
ATOM     19  O   UNL     1      -5.644  20.587  67.376  0.00  0.00    -0.333 OA
ENDBRANCH   7  12
BRANCH   1  20
ATOM     20  O   UNL     1     -11.533  15.071  65.858  0.00  0.00    -0.433 OA
BRANCH  20  21
ATOM     21  C   UNL     1     -11.254  13.960  66.643  0.00  0.00    +0.210 C 
BRANCH  21  22
ATOM     22  C   UNL     1     -11.191  12.822  65.652  0.00  0.00    +0.048 C 
BRANCH  22  23
ATOM     23  C   UNL     1     -12.503  12.667  64.941  0.00  0.00    +0.004 C 
BRANCH  23  25
ATOM     24  C   UNL     1     -10.857  11.523  63.490  0.00  0.00    +0.000 C 
ATOM     25  C   UNL     1     -12.124  12.324  63.516  0.00  0.00    +0.000 C 
ENDBRANCH  23  25
ENDBRANCH  22  23
ENDBRANCH  21  22
ENDBRANCH  20  21
ENDBRANCH   1  20
TORSDOF 6
ENDMDL
MODEL 8
REMARK VINA RESULT:      -6.4      2.691      3.588
REMARK  Name = 
REMARK  6 active torsions:
REMARK  status: ('A' for Active; 'I' for Inactive)
REMARK    1  A    between atoms: C_2  and  C_3
REMARK    2  A    between atoms: C_3  and  C_4
REMARK    3  A    between atoms: C_4  and  C_5
REMARK    4  A    between atoms: C_5  and  O_6
REMARK    5  A    between atoms: O_6  and  C_7
REMARK    6  A    between atoms: N_14  and  C_15
REMARK                            x       y       z     vdW  Elec       q    Type
REMARK                         _______ _______ _______ _____ _____    ______ ____
ROOT
ATOM      1  C   UNL     1     -11.084  13.918  66.519  0.00  0.00    +0.427 C 
ATOM      2  N   UNL     1     -10.181  14.792  65.926  0.00  0.00    -0.121 NA
ATOM      3  C   UNL     1      -9.857  15.967  66.599  0.00  0.00    +0.191 A 
ATOM      4  C   UNL     1      -8.829  15.913  67.542  0.00  0.00    +0.191 A 
ATOM      5  F   UNL     1      -9.145  15.032  68.531  0.00  0.00    -0.200 F 
ATOM      6  C   UNL     1      -8.222  17.112  67.983  0.00  0.00    +0.115 A 
ATOM      7  N   UNL     1      -8.670  18.235  67.346  0.00  0.00    -0.251 N 
ATOM      8  C   UNL     1      -9.958  18.134  66.921  0.00  0.00    +0.353 A 
ATOM      9  O   UNL     1     -10.921  18.847  67.316  0.00  0.00    -0.244 OA
ATOM     10  N   UNL     1     -10.178  17.166  66.002  0.00  0.00    -0.173 NA
ATOM     11  O   UNL     1     -12.236  14.381  66.760  0.00  0.00    -0.224 OA
ENDROOT
BRANCH   7  12
ATOM     12  C   UNL     1      -8.303  19.603  68.181  0.00  0.00    +0.242 C 
ATOM     13  C   UNL     1      -6.596  19.929  67.717  0.00  0.00    +0.234 C 
ATOM     14  O   UNL     1      -6.793  21.339  67.270  0.00  0.00    -0.216 OA
ATOM     15  C   UNL     1      -6.934  19.169  66.270  0.00  0.00    +0.214 C 
ATOM     16  O   UNL     1      -7.306  20.386  65.402  0.00  0.00    -0.218 OA
ATOM     17  C   UNL     1      -8.256  19.216  67.360  0.00  0.00    +0.150 C 
ATOM     18  C   UNL     1      -7.364  19.159  68.849  0.00  0.00    +0.035 C 
ATOM     19  O   UNL     1      -8.606  20.620  67.190  0.00  0.00    -0.333 OA
ENDBRANCH   7  12
BRANCH   1  20
ATOM     20  O   UNL     1     -10.855  12.668  67.032  0.00  0.00    -0.433 OA
BRANCH  20  21
ATOM     21  C   UNL     1      -9.909  11.833  66.452  0.00  0.00    +0.210 C 
BRANCH  21  22
ATOM     22  C   UNL     1     -10.723  10.939  65.546  0.00  0.00    +0.048 C 
BRANCH  22  23
ATOM     23  C   UNL     1     -10.099  10.857  64.183  0.00  0.00    +0.004 C 
BRANCH  23  25
ATOM     24  C   UNL     1     -12.197  11.978  63.502  0.00  0.00    +0.000 C 
ATOM     25  C   UNL     1     -10.701  12.018  63.421  0.00  0.00    +0.000 C 
ENDBRANCH  23  25
ENDBRANCH  22  23
ENDBRANCH  21  22
ENDBRANCH  20  21
ENDBRANCH   1  20
TORSDOF 6
ENDMDL
MODEL 9
REMARK VINA RESULT:      -6.4      3.373      7.321
REMARK  Name = 
REMARK  6 active torsions:
REMARK  status: ('A' for Active; 'I' for Inactive)
REMARK    1  A    between atoms: C_2  and  C_3
REMARK    2  A    between atoms: C_3  and  C_4
REMARK    3  A    between atoms: C_4  and  C_5
REMARK    4  A    between atoms: C_5  and  O_6
REMARK    5  A    between atoms: O_6  and  C_7
REMARK    6  A    between atoms: N_14  and  C_15
REMARK                            x       y       z     vdW  Elec       q    Type
REMARK                         _______ _______ _______ _____ _____    ______ ____
ROOT
ATOM      1  C   UNL     1      -7.038  16.198  68.304  0.00  0.00    +0.427 C 
ATOM      2  N   UNL     1      -7.262  15.213  67.350  0.00  0.00    -0.121 NA
ATOM      3  C   UNL     1      -8.575  14.938  66.978  0.00  0.00    +0.191 A 
ATOM      4  C   UNL     1      -9.143  15.718  65.969  0.00  0.00    +0.191 A 
ATOM      5  F   UNL     1      -9.163  17.027  66.343  0.00  0.00    -0.200 F 
ATOM      6  C   UNL     1     -10.310  15.267  65.310  0.00  0.00    +0.115 A 
ATOM      7  N   UNL     1     -10.724  14.022  65.692  0.00  0.00    -0.251 N 
ATOM      8  C   UNL     1     -10.398  13.718  66.977  0.00  0.00    +0.353 A 
ATOM      9  O   UNL     1     -11.217  13.489  67.910  0.00  0.00    -0.244 OA
ATOM     10  N   UNL     1      -9.070  13.678  67.230  0.00  0.00    -0.173 NA
ATOM     11  O   UNL     1      -7.573  16.014  69.435  0.00  0.00    -0.224 OA
ENDROOT
BRANCH   7  12
ATOM     12  C   UNL     1     -12.288  13.740  65.271  0.00  0.00    +0.242 C 
ATOM     13  C   UNL     1     -12.169  13.218  63.554  0.00  0.00    +0.234 C 
ATOM     14  O   UNL     1     -12.925  11.939  63.697  0.00  0.00    -0.216 OA
ATOM     15  C   UNL     1     -10.649  12.640  63.923  0.00  0.00    +0.214 C 
ATOM     16  O   UNL     1     -10.984  11.173  64.250  0.00  0.00    -0.218 OA
ATOM     17  C   UNL     1     -11.451  13.389  65.240  0.00  0.00    +0.150 C 
ATOM     18  C   UNL     1     -12.376  14.555  64.349  0.00  0.00    +0.035 C 
ATOM     19  O   UNL     1     -12.392  12.316  65.536  0.00  0.00    -0.333 OA
ENDBRANCH   7  12
BRANCH   1  20
ATOM     20  O   UNL     1      -6.452  17.426  68.145  0.00  0.00    -0.433 OA
BRANCH  20  21
ATOM     21  C   UNL     1      -7.028  18.557  68.708  0.00  0.00    +0.210 C 
BRANCH  21  22
ATOM     22  C   UNL     1      -6.283  19.703  68.064  0.00  0.00    +0.048 C 
BRANCH  22  23
ATOM     23  C   UNL     1      -7.240  20.651  67.403  0.00  0.00    +0.004 C 
BRANCH  23  25
ATOM     24  C   UNL     1      -6.614  19.891  65.133  0.00  0.00    +0.000 C 
ATOM     25  C   UNL     1      -7.703  19.917  66.162  0.00  0.00    +0.000 C 
ENDBRANCH  23  25
ENDBRANCH  22  23
ENDBRANCH  21  22
ENDBRANCH  20  21
ENDBRANCH   1  20
TORSDOF 6
ENDMDL
