MODEL 1
REMARK VINA RESULT:      -6.8      0.000      0.000
REMARK  Name = 
REMARK  3 active torsions:
REMARK  status: ('A' for Active; 'I' for Inactive)
REMARK    1  A    between atoms: C_2  and  C_3
REMARK    2  A    between atoms: C_9  and  C_11
REMARK    3  A    between atoms: C_11  and  C_13
REMARK                            x       y       z     vdW  Elec       q    Type
REMARK                         _______ _______ _______ _____ _____    ______ ____
ROOT
ATOM      1  C   UNL     1     -10.469  16.050  66.330  0.00  0.00    +0.168 C 
ATOM      2  N   UNL     1     -10.629  17.229  65.262  0.00  0.00    -0.123 NA
ENDROOT
BRANCH   1   3
ATOM      3  C   UNL     1     -10.379  14.730  65.349  0.00  0.00    +0.027 C 
ATOM      4  C   UNL     1      -9.998  13.957  66.519  0.00  0.00    +0.002 C 
ATOM      5  C   UNL     1     -11.361  13.363  67.232  0.00  0.00    +0.002 C 
ATOM      6  C   UNL     1     -11.549  12.085  66.231  0.00  0.00    +0.030 C 
ATOM      7  C   UNL     1     -11.973  12.674  64.920  0.00  0.00    +0.127 C 
ATOM      8  C   UNL     1     -11.716  13.032  63.833  0.00  0.00    +0.030 C 
ATOM      9  C   UNL     1     -11.211  13.805  65.215  0.00  0.00    +0.002 C 
ATOM     10  O   UNL     1     -13.299  12.467  64.685  0.00  0.00    -0.226 OA
ATOM     11  C   UNL     1     -12.472  14.087  66.227  0.00  0.00    +0.000 C 
ATOM     12  C   UNL     1     -11.669  14.186  64.789  0.00  0.00    +0.032 C 
ATOM     13  C   UNL     1     -11.079  15.190  64.350  0.00  0.00    +0.002 C 
ENDBRANCH   1   3
BRANCH   1  16
ATOM     14  C   UNL     1      -8.207  16.713  68.948  0.00  0.00    +0.167 C 
ATOM     15  N   UNL     1      -7.973  16.453  67.409  0.00  0.00    -0.269 N 
ATOM     16  C   UNL     1      -8.862  15.978  66.531  0.00  0.00    +0.244 C 
ATOM     17  O   UNL     1      -8.633  16.721  65.577  0.00  0.00    -0.273 OA
ATOM     18  C   UNL     1      -7.160  17.814  67.442  0.00  0.00    +0.076 C 
ATOM     19  C   UNL     1      -8.370  18.760  68.166  0.00  0.00    +0.023 C 
ATOM     20  C   UNL     1      -8.205  18.754  66.471  0.00  0.00    +0.022 C 
ATOM     21  C   UNL     1      -9.483  17.564  68.334  0.00  0.00    +0.037 C 
BRANCH  14  23
ATOM     22  N   UNL     1      -9.843  15.299  69.919  0.00  0.00    -0.194 NA
ATOM     23  C   UNL     1      -8.955  15.308  69.154  0.00  0.00    +0.093 C 
ENDBRANCH  14  23
ENDBRANCH   1  16
TORSDOF 3
ENDMDL
MODEL 2
REMARK VINA RESULT:      -6.4      1.742      5.899
REMARK  Name = 
REMARK  3 active torsions:
REMARK  status: ('A' for Active; 'I' for Inactive)
REMARK    1  A    between atoms: C_2  and  C_3
REMARK    2  A    between atoms: C_9  and  C_11
REMARK    3  A    between atoms: C_11  and  C_13
REMARK                            x       y       z     vdW  Elec       q    Type
REMARK                         _______ _______ _______ _____ _____    ______ ____
ROOT
ATOM      1  C   UNL     1      -9.919  15.532  67.657  0.00  0.00    +0.168 C 
ATOM      2  N   UNL     1      -9.554  14.584  68.893  0.00  0.00    -0.123 NA
ENDROOT
BRANCH   1   3
ATOM      3  C   UNL     1      -8.531  16.405  67.495  0.00  0.00    +0.027 C 
ATOM      4  C   UNL     1      -9.153  17.075  66.366  0.00  0.00    +0.002 C 
ATOM      5  C   UNL     1      -9.954  18.409  66.913  0.00  0.00    +0.002 C 
ATOM      6  C   UNL     1      -8.647  19.385  67.000  0.00  0.00    +0.030 C 
ATOM      7  C   UNL     1      -7.844  18.864  68.153  0.00  0.00    +0.127 C 
ATOM      8  C   UNL     1      -6.951  18.227  68.568  0.00  0.00    +0.030 C 
ATOM      9  C   UNL     1      -8.308  17.582  67.857  0.00  0.00    +0.002 C 
ATOM     10  O   UNL     1      -7.950  19.675  69.242  0.00  0.00    -0.226 OA
ATOM     11  C   UNL     1      -9.674  18.185  68.538  0.00  0.00    +0.000 C 
ATOM     12  C   UNL     1      -8.213  17.418  68.565  0.00  0.00    +0.032 C 
ATOM     13  C   UNL     1      -8.035  16.192  68.681  0.00  0.00    +0.002 C 
ENDBRANCH   1   3
BRANCH   1  16
ATOM     14  C   UNL     1     -11.488  14.263  64.771  0.00  0.00    +0.167 C 
ATOM     15  N   UNL     1     -10.089  13.938  65.424  0.00  0.00    -0.269 N 
ATOM     16  C   UNL     1      -9.471  14.633  66.385  0.00  0.00    +0.244 C 
ATOM     17  O   UNL     1      -9.066  13.707  67.086  0.00  0.00    -0.273 OA
ATOM     18  C   UNL     1     -10.568  12.427  65.369  0.00  0.00    +0.076 C 
ATOM     19  C   UNL     1     -12.057  12.653  66.153  0.00  0.00    +0.023 C 
ATOM     20  C   UNL     1     -10.701  12.145  67.049  0.00  0.00    +0.022 C 
ATOM     21  C   UNL     1     -11.926  14.278  66.363  0.00  0.00    +0.037 C 
BRANCH  14  23
ATOM     22  N   UNL     1     -11.801  16.430  63.860  0.00  0.00    -0.194 NA
ATOM     23  C   UNL     1     -11.146  15.824  64.620  0.00  0.00    +0.093 C 
ENDBRANCH  14  23
ENDBRANCH   1  16
TORSDOF 3
ENDMDL
MODEL 3
REMARK VINA RESULT:      -6.3      1.698      2.463
REMARK  Name = 
REMARK  3 active torsions:
REMARK  status: ('A' for Active; 'I' for Inactive)
REMARK    1  A    between atoms: C_2  and  C_3
REMARK    2  A    between atoms: C_9  and  C_11
REMARK    3  A    between atoms: C_11  and  C_13
REMARK                            x       y       z     vdW  Elec       q    Type
REMARK                         _______ _______ _______ _____ _____    ______ ____
ROOT
ATOM      1  C   UNL     1     -10.021  16.077  67.813  0.00  0.00    +0.168 C 
ATOM      2  N   UNL     1     -11.289  16.693  68.568  0.00  0.00    -0.123 NA
ENDROOT
BRANCH   1   3
ATOM      3  C   UNL     1     -10.745  15.188  66.630  0.00  0.00    +0.027 C 
ATOM      4  C   UNL     1      -9.416  14.804  66.185  0.00  0.00    +0.002 C 
ATOM      5  C   UNL     1      -8.967  13.428  66.976  0.00  0.00    +0.002 C 
ATOM      6  C   UNL     1      -9.782  12.389  66.014  0.00  0.00    +0.030 C 
ATOM      7  C   UNL     1     -11.229  12.613  66.332  0.00  0.00    +0.127 C 
ATOM      8  C   UNL     1     -12.264  13.101  66.079  0.00  0.00    +0.030 C 
ATOM      9  C   UNL     1     -10.933  13.951  66.595  0.00  0.00    +0.002 C 
ATOM     10  O   UNL     1     -11.738  11.597  67.083  0.00  0.00    -0.226 OA
ATOM     11  C   UNL     1     -10.303  13.289  67.958  0.00  0.00    +0.000 C 
ATOM     12  C   UNL     1     -11.508  13.957  67.049  0.00  0.00    +0.032 C 
ATOM     13  C   UNL     1     -11.938  15.119  67.150  0.00  0.00    +0.002 C 
ENDBRANCH   1   3
BRANCH   1  16
ATOM     14  C   UNL     1      -7.278  18.161  67.080  0.00  0.00    +0.167 C 
ATOM     15  N   UNL     1      -8.769  18.183  66.566  0.00  0.00    -0.269 N 
ATOM     16  C   UNL     1      -9.683  17.218  66.712  0.00  0.00    +0.244 C 
ATOM     17  O   UNL     1     -10.664  17.900  67.006  0.00  0.00    -0.273 OA
ATOM     18  C   UNL     1      -8.764  19.698  67.034  0.00  0.00    +0.076 C 
ATOM     19  C   UNL     1      -8.211  19.424  68.616  0.00  0.00    +0.023 C 
ATOM     20  C   UNL     1      -9.882  19.567  68.320  0.00  0.00    +0.022 C 
ATOM     21  C   UNL     1      -8.053  17.793  68.491  0.00  0.00    +0.037 C 
BRANCH  14  23
ATOM     22  N   UNL     1      -6.084  16.115  66.973  0.00  0.00    -0.194 NA
ATOM     23  C   UNL     1      -7.036  16.661  66.561  0.00  0.00    +0.093 C 
ENDBRANCH  14  23
ENDBRANCH   1  16
TORSDOF 3
ENDMDL
MODEL 4
REMARK VINA RESULT:      -6.3      1.983      5.565
REMARK  Name = 
REMARK  3 active torsions:
REMARK  status: ('A' for Active; 'I' for Inactive)
REMARK    1  A    between atoms: C_2  and  C_3
REMARK    2  A    between atoms: C_9  and  C_11
REMARK    3  A    between atoms: C_11  and  C_13
REMARK                            x       y       z     vdW  Elec       q    Type
REMARK                         _______ _______ _______ _____ _____    ______ ____
ROOT
ATOM      1  C   UNL     1      -9.028  16.055  67.570  0.00  0.00    +0.168 C 
ATOM      2  N   UNL     1      -7.877  15.160  66.914  0.00  0.00    -0.123 NA
ENDROOT
BRANCH   1   3
ATOM      3  C   UNL     1      -9.027  17.368  66.575  0.00  0.00    +0.027 C 
ATOM      4  C   UNL     1     -10.264  17.783  67.216  0.00  0.00    +0.002 C 
ATOM      5  C   UNL     1      -9.900  18.735  68.511  0.00  0.00    +0.002 C 
ATOM      6  C   UNL     1      -9.668  20.114  67.666  0.00  0.00    +0.030 C 
ATOM      7  C   UNL     1      -8.389  19.904  66.915  0.00  0.00    +0.127 C 
ATOM      8  C   UNL     1      -7.820  19.625  65.929  0.00  0.00    +0.030 C 
ATOM      9  C   UNL     1      -8.690  18.544  66.842  0.00  0.00    +0.002 C 
ATOM     10  O   UNL     1      -7.364  20.613  67.466  0.00  0.00    -0.226 OA
ATOM     11  C   UNL     1      -8.243  18.612  68.421  0.00  0.00    +0.000 C 
ATOM     12  C   UNL     1      -7.969  18.418  66.804  0.00  0.00    +0.032 C 
ATOM     13  C   UNL     1      -7.773  17.336  66.223  0.00  0.00    +0.002 C 
ENDBRANCH   1   3
BRANCH   1  16
ATOM     14  C   UNL     1     -11.883  14.202  68.476  0.00  0.00    +0.167 C 
ATOM     15  N   UNL     1     -11.316  14.618  67.063  0.00  0.00    -0.269 N 
ATOM     16  C   UNL     1     -10.358  15.518  66.816  0.00  0.00    +0.244 C 
ATOM     17  O   UNL     1      -9.720  14.914  65.956  0.00  0.00    -0.273 OA
ATOM     18  C   UNL     1     -11.412  13.072  66.722  0.00  0.00    +0.076 C 
ATOM     19  C   UNL     1     -10.544  12.509  68.069  0.00  0.00    +0.023 C 
ATOM     20  C   UNL     1      -9.740  12.742  66.585  0.00  0.00    +0.022 C 
ATOM     21  C   UNL     1     -10.271  13.976  68.757  0.00  0.00    +0.037 C 
BRANCH  14  23
ATOM     22  N   UNL     1     -12.372  15.891  70.066  0.00  0.00    -0.194 NA
ATOM     23  C   UNL     1     -11.984  15.725  68.973  0.00  0.00    +0.093 C 
ENDBRANCH  14  23
ENDBRANCH   1  16
TORSDOF 3
ENDMDL
MODEL 5
REMARK VINA RESULT:      -6.1      3.660      5.119
REMARK  Name = 
REMARK  3 active torsions:
REMARK  status: ('A' for Active; 'I' for Inactive)
REMARK    1  A    between atoms: C_2  and  C_3
REMARK    2  A    between atoms: C_9  and  C_11
REMARK    3  A    between atoms: C_11  and  C_13
REMARK                            x       y       z     vdW  Elec       q    Type
REMARK                         _______ _______ _______ _____ _____    ______ ____
ROOT
ATOM      1  C   UNL     1     -11.688  14.956  68.905  0.00  0.00    +0.168 C 
ATOM      2  N   UNL     1     -12.049  13.841  67.817  0.00  0.00    -0.123 NA
ENDROOT
BRANCH   1   3
ATOM      3  C   UNL     1     -11.637  14.060  70.286  0.00  0.00    +0.027 C 
ATOM      4  C   UNL     1     -11.127  15.240  70.964  0.00  0.00    +0.002 C 
ATOM      5  C   UNL     1     -12.399  16.110  71.549  0.00  0.00    +0.002 C 
ATOM      6  C   UNL     1     -12.628  15.217  72.897  0.00  0.00    +0.030 C 
ATOM      7  C   UNL     1     -13.186  13.913  72.414  0.00  0.00    +0.127 C 
ATOM      8  C   UNL     1     -13.040  12.787  72.124  0.00  0.00    +0.030 C 
ATOM      9  C   UNL     1     -12.443  14.064  71.243  0.00  0.00    +0.002 C 
ATOM     10  O   UNL     1     -14.519  13.813  72.677  0.00  0.00    -0.226 OA
ATOM     11  C   UNL     1     -13.620  15.164  70.930  0.00  0.00    +0.000 C 
ATOM     12  C   UNL     1     -12.950  13.656  70.906  0.00  0.00    +0.032 C 
ATOM     13  C   UNL     1     -12.438  13.101  69.918  0.00  0.00    +0.002 C 
ENDBRANCH   1   3
BRANCH   1  16
ATOM     14  C   UNL     1      -9.178  16.999  67.514  0.00  0.00    +0.167 C 
ATOM     15  N   UNL     1      -9.112  15.562  68.163  0.00  0.00    -0.269 N 
ATOM     16  C   UNL     1     -10.068  14.958  68.877  0.00  0.00    +0.244 C 
ATOM     17  O   UNL     1      -9.999  13.825  68.404  0.00  0.00    -0.273 OA
ATOM     18  C   UNL     1      -8.385  15.139  66.819  0.00  0.00    +0.076 C 
ATOM     19  C   UNL     1      -9.556  15.745  65.750  0.00  0.00    +0.023 C 
ATOM     20  C   UNL     1      -9.593  14.102  66.196  0.00  0.00    +0.022 C 
ATOM     21  C   UNL     1     -10.568  16.358  66.891  0.00  0.00    +0.037 C 
BRANCH  14  23
ATOM     22  N   UNL     1     -10.151  18.772  68.751  0.00  0.00    -0.194 NA
ATOM     23  C   UNL     1      -9.810  17.655  68.837  0.00  0.00    +0.093 C 
ENDBRANCH  14  23
ENDBRANCH   1  16
TORSDOF 3
ENDMDL
MODEL 6
REMARK VINA RESULT:      -6.1      2.062      3.622
REMARK  Name = 
REMARK  3 active torsions:
REMARK  status: ('A' for Active; 'I' for Inactive)
REMARK    1  A    between atoms: C_2  and  C_3
REMARK    2  A    between atoms: C_9  and  C_11
REMARK    3  A    between atoms: C_11  and  C_13
REMARK                            x       y       z     vdW  Elec       q    Type
REMARK                         _______ _______ _______ _____ _____    ______ ____
ROOT
ATOM      1  C   UNL     1      -9.924  15.408  68.115  0.00  0.00    +0.168 C 
ATOM      2  N   UNL     1      -9.473  15.597  69.638  0.00  0.00    -0.123 NA
ENDROOT
BRANCH   1   3
ATOM      3  C   UNL     1     -11.215  14.398  68.281  0.00  0.00    +0.027 C 
ATOM      4  C   UNL     1     -11.293  14.354  66.830  0.00  0.00    +0.002 C 
ATOM      5  C   UNL     1     -10.361  13.108  66.285  0.00  0.00    +0.002 C 
ATOM      6  C   UNL     1     -11.456  11.927  66.557  0.00  0.00    +0.030 C 
ATOM      7  C   UNL     1     -11.524  11.791  68.047  0.00  0.00    +0.127 C 
ATOM      8  C   UNL     1     -12.051  12.022  69.068  0.00  0.00    +0.030 C 
ATOM      9  C   UNL     1     -11.249  13.154  68.154  0.00  0.00    +0.002 C 
ATOM     10  O   UNL     1     -10.887  10.665  68.475  0.00  0.00    -0.226 OA
ATOM     11  C   UNL     1      -9.745  12.630  67.755  0.00  0.00    +0.000 C 
ATOM     12  C   UNL     1     -10.956  13.011  68.810  0.00  0.00    +0.032 C 
ATOM     13  C   UNL     1     -11.013  14.034  69.516  0.00  0.00    +0.002 C 
ENDBRANCH   1   3
BRANCH   1  16
ATOM     14  C   UNL     1     -10.225  18.092  65.854  0.00  0.00    +0.167 C 
ATOM     15  N   UNL     1     -10.951  17.797  67.224  0.00  0.00    -0.269 N 
ATOM     16  C   UNL     1     -10.950  16.643  67.901  0.00  0.00    +0.244 C 
ATOM     17  O   UNL     1     -10.795  17.071  69.044  0.00  0.00    -0.273 OA
ATOM     18  C   UNL     1     -10.470  19.251  67.635  0.00  0.00    +0.076 C 
ATOM     19  C   UNL     1      -8.827  19.039  67.260  0.00  0.00    +0.023 C 
ATOM     20  C   UNL     1      -9.363  18.811  68.861  0.00  0.00    +0.022 C 
ATOM     21  C   UNL     1      -8.946  17.494  66.713  0.00  0.00    +0.037 C 
BRANCH  14  23
ATOM     22  N   UNL     1     -11.369  16.796  64.231  0.00  0.00    -0.194 NA
ATOM     23  C   UNL     1     -10.719  16.710  65.202  0.00  0.00    +0.093 C 
ENDBRANCH  14  23
ENDBRANCH   1  16
TORSDOF 3
ENDMDL
MODEL 7
REMARK VINA RESULT:      -6.0      1.510      2.890
REMARK  Name = 
REMARK  3 active torsions:
REMARK  status: ('A' for Active; 'I' for Inactive)
REMARK    1  A    between atoms: C_2  and  C_3
REMARK    2  A    between atoms: C_9  and  C_11
REMARK    3  A    between atoms: C_11  and  C_13
REMARK                            x       y       z     vdW  Elec       q    Type
REMARK                         _______ _______ _______ _____ _____    ______ ____
ROOT
ATOM      1  C   UNL     1      -8.793  15.336  66.722  0.00  0.00    +0.168 C 
ATOM      2  N   UNL     1      -7.617  14.395  67.262  0.00  0.00    -0.123 NA
ENDROOT
BRANCH   1   3
ATOM      3  C   UNL     1     -10.123  14.574  67.325  0.00  0.00    +0.027 C 
ATOM      4  C   UNL     1     -10.931  15.583  66.660  0.00  0.00    +0.002 C 
ATOM      5  C   UNL     1     -11.292  15.060  65.139  0.00  0.00    +0.002 C 
ATOM      6  C   UNL     1     -12.536  14.093  65.568  0.00  0.00    +0.030 C 
ATOM      7  C   UNL     1     -11.906  12.936  66.281  0.00  0.00    +0.127 C 
ATOM      8  C   UNL     1     -11.607  12.392  67.276  0.00  0.00    +0.030 C 
ATOM      9  C   UNL     1     -10.906  13.798  66.733  0.00  0.00    +0.002 C 
ATOM     10  O   UNL     1     -11.903  11.814  65.507  0.00  0.00    -0.226 OA
ATOM     11  C   UNL     1     -10.414  13.647  65.175  0.00  0.00    +0.000 C 
ATOM     12  C   UNL     1     -10.463  13.215  66.767  0.00  0.00    +0.032 C 
ATOM     13  C   UNL     1      -9.571  13.428  67.608  0.00  0.00    +0.002 C 
ENDBRANCH   1   3
BRANCH   1  16
ATOM     14  C   UNL     1      -8.571  18.844  66.948  0.00  0.00    +0.167 C 
ATOM     15  N   UNL     1      -8.602  17.728  68.063  0.00  0.00    -0.269 N 
ATOM     16  C   UNL     1      -8.923  16.440  67.901  0.00  0.00    +0.244 C 
ATOM     17  O   UNL     1      -8.049  15.917  68.592  0.00  0.00    -0.273 OA
ATOM     18  C   UNL     1      -7.276  18.416  68.596  0.00  0.00    +0.076 C 
ATOM     19  C   UNL     1      -6.428  18.396  67.125  0.00  0.00    +0.023 C 
ATOM     20  C   UNL     1      -6.182  17.148  68.257  0.00  0.00    +0.022 C 
ATOM     21  C   UNL     1      -7.616  17.711  66.220  0.00  0.00    +0.037 C 
BRANCH  14  23
ATOM     22  N   UNL     1     -10.534  19.159  65.656  0.00  0.00    -0.194 NA
ATOM     23  C   UNL     1      -9.978  18.378  66.330  0.00  0.00    +0.093 C 
ENDBRANCH  14  23
ENDBRANCH   1  16
TORSDOF 3
ENDMDL
MODEL 8
REMARK VINA RESULT:      -5.9      1.863      5.498
REMARK  Name = 
REMARK  3 active torsions:
REMARK  status: ('A' for Active; 'I' for Inactive)
REMARK    1  A    between atoms: C_2  and  C_3
REMARK    2  A    between atoms: C_9  and  C_11
REMARK    3  A    between atoms: C_11  and  C_13
REMARK                            x       y       z     vdW  Elec       q    Type
REMARK                         _______ _______ _______ _____ _____    ______ ____
ROOT
ATOM      1  C   UNL     1      -9.882  16.206  65.821  0.00  0.00    +0.168 C 
ATOM      2  N   UNL     1     -10.867  16.639  64.637  0.00  0.00    -0.123 NA
ENDROOT
BRANCH   1   3
ATOM      3  C   UNL     1     -10.122  17.422  66.906  0.00  0.00    +0.027 C 
ATOM      4  C   UNL     1      -9.280  16.685  67.832  0.00  0.00    +0.002 C 
ATOM      5  C   UNL     1      -7.713  17.153  67.618  0.00  0.00    +0.002 C 
ATOM      6  C   UNL     1      -7.806  18.517  68.512  0.00  0.00    +0.030 C 
ATOM      7  C   UNL     1      -8.649  19.458  67.706  0.00  0.00    +0.127 C 
ATOM      8  C   UNL     1      -9.684  19.961  67.482  0.00  0.00    +0.030 C 
ATOM      9  C   UNL     1      -9.346  18.357  67.207  0.00  0.00    +0.002 C 
ATOM     10  O   UNL     1      -7.895  20.436  67.131  0.00  0.00    -0.226 OA
ATOM     11  C   UNL     1      -7.963  18.188  66.338  0.00  0.00    +0.000 C 
ATOM     12  C   UNL     1      -9.488  18.758  66.610  0.00  0.00    +0.032 C 
ATOM     13  C   UNL     1     -10.529  18.339  66.074  0.00  0.00    +0.002 C 
ENDBRANCH   1   3
BRANCH   1  16
ATOM     14  C   UNL     1      -9.923  12.800  66.718  0.00  0.00    +0.167 C 
ATOM     15  N   UNL     1     -11.009  13.933  66.879  0.00  0.00    -0.269 N 
ATOM     16  C   UNL     1     -10.826  15.249  66.726  0.00  0.00    +0.244 C 
ATOM     17  O   UNL     1     -11.846  15.531  66.097  0.00  0.00    -0.273 OA
ATOM     18  C   UNL     1     -11.978  12.919  66.138  0.00  0.00    +0.076 C 
ATOM     19  C   UNL     1     -10.977  12.618  64.799  0.00  0.00    +0.023 C 
ATOM     20  C   UNL     1     -12.200  13.797  64.689  0.00  0.00    +0.022 C 
ATOM     21  C   UNL     1      -9.724  13.570  65.270  0.00  0.00    +0.037 C 
BRANCH  14  23
ATOM     22  N   UNL     1      -7.707  13.330  67.375  0.00  0.00    -0.194 NA
ATOM     23  C   UNL     1      -8.827  13.620  67.558  0.00  0.00    +0.093 C 
ENDBRANCH  14  23
ENDBRANCH   1  16
TORSDOF 3
ENDMDL
MODEL 9
REMARK VINA RESULT:      -5.9      4.073      6.215
REMARK  Name = 
REMARK  3 active torsions:
REMARK  status: ('A' for Active; 'I' for Inactive)
REMARK    1  A    between atoms: C_2  and  C_3
REMARK    2  A    between atoms: C_9  and  C_11
REMARK    3  A    between atoms: C_11  and  C_13
REMARK                            x       y       z     vdW  Elec       q    Type
REMARK                         _______ _______ _______ _____ _____    ______ ____
ROOT
ATOM      1  C   UNL     1     -10.570  11.814  68.027  0.00  0.00    +0.168 C 
ATOM      2  N   UNL     1     -10.947  13.153  68.817  0.00  0.00    -0.123 NA
ENDROOT
BRANCH   1   3
ATOM      3  C   UNL     1     -11.493  10.700  68.813  0.00  0.00    +0.027 C 
ATOM      4  C   UNL     1     -10.993   9.709  67.876  0.00  0.00    +0.002 C 
ATOM      5  C   UNL     1      -9.618   9.038  68.492  0.00  0.00    +0.002 C 
ATOM      6  C   UNL     1     -10.361   7.979  69.489  0.00  0.00    +0.030 C 
ATOM      7  C   UNL     1     -10.956   8.817  70.579  0.00  0.00    +0.127 C 
ATOM      8  C   UNL     1     -11.876   9.364  71.058  0.00  0.00    +0.030 C 
ATOM      9  C   UNL     1     -11.130   9.845  69.653  0.00  0.00    +0.002 C 
ATOM     10  O   UNL     1     -10.248   8.703  71.738  0.00  0.00    -0.226 OA
ATOM     11  C   UNL     1      -9.507   9.976  69.862  0.00  0.00    +0.000 C 
ATOM     12  C   UNL     1     -11.084  10.315  70.213  0.00  0.00    +0.032 C 
ATOM     13  C   UNL     1     -11.688  11.362  69.918  0.00  0.00    +0.002 C 
ENDBRANCH   1   3
BRANCH   1  16
ATOM     14  C   UNL     1     -10.432  12.031  64.514  0.00  0.00    +0.167 C 
ATOM     15  N   UNL     1     -11.645  12.138  65.517  0.00  0.00    -0.269 N 
ATOM     16  C   UNL     1     -11.645  11.811  66.815  0.00  0.00    +0.244 C 
ATOM     17  O   UNL     1     -12.277  12.763  67.270  0.00  0.00    -0.273 OA
ATOM     18  C   UNL     1     -11.952  13.510  64.785  0.00  0.00    +0.076 C 
ATOM     19  C   UNL     1     -10.402  14.184  64.948  0.00  0.00    +0.023 C 
ATOM     20  C   UNL     1     -11.613  14.569  66.083  0.00  0.00    +0.022 C 
ATOM     21  C   UNL     1      -9.710  12.906  65.715  0.00  0.00    +0.037 C 
BRANCH  14  23
ATOM     22  N   UNL     1      -9.560   9.843  64.239  0.00  0.00    -0.194 NA
ATOM     23  C   UNL     1     -10.027  10.566  65.033  0.00  0.00    +0.093 C 
ENDBRANCH  14  23
ENDBRANCH   1  16
TORSDOF 3
ENDMDL
