MODEL 1
REMARK VINA RESULT:      -6.6      0.000      0.000
REMARK  Name = 
REMARK  6 active torsions:
REMARK  status: ('A' for Active; 'I' for Inactive)
REMARK    1  A    between atoms: C_4  and  C_5
REMARK    2  A    between atoms: C_8  and  O_9
REMARK    3  A    between atoms: O_9  and  C_10
REMARK    4  A    between atoms: C_10  and  C_11
REMARK    5  A    between atoms: C_14  and  C_15
REMARK    6  A    between atoms: C_19  and  C_20
REMARK                            x       y       z     vdW  Elec       q    Type
REMARK                         _______ _______ _______ _____ _____    ______ ____
ROOT
ATOM      1  C   UNL     1     -11.766  12.716  68.934  0.00  0.00    +0.025 A 
ATOM      2  C   UNL     1     -12.378  13.336  70.017  0.00  0.00    +0.015 A 
ATOM      3  C   UNL     1     -12.733  12.610  71.147  0.00  0.00    +0.102 A 
ATOM      4  C   UNL     1     -12.563  11.233  71.085  0.00  0.00    +0.148 A 
ATOM      5  C   UNL     1     -11.682  10.639  70.191  0.00  0.00    +0.038 A 
ATOM      6  C   UNL     1     -11.180  11.486  69.210  0.00  0.00    +0.005 A 
ENDROOT
BRANCH   1  11
ATOM      7  C   UNL     1     -10.763  13.316  64.202  0.00  0.00    +0.053 C 
ATOM      8  C   UNL     1     -10.979  13.855  65.584  0.00  0.00    +0.072 A 
ATOM      9  C   UNL     1     -10.861  15.209  65.879  0.00  0.00    +0.124 A 
ATOM     10  S   UNL     1     -10.949  15.148  67.594  0.00  0.00    -0.060 S 
ATOM     11  C   UNL     1     -11.351  13.483  67.751  0.00  0.00    +0.111 A 
ATOM     12  N   UNL     1     -11.738  13.225  66.477  0.00  0.00    -0.242 NA
BRANCH   9  13
ATOM     13  C   UNL     1     -10.819  16.344  64.953  0.00  0.00    +0.395 C 
ATOM     14  O   UNL     1     -11.678  16.443  63.863  0.00  0.00    -0.240 OA
ATOM     15  O   UNL     1     -10.261  17.419  65.318  0.00  0.00    -0.240 OA
ENDBRANCH   9  13
ENDBRANCH   1  11
BRANCH   3  16
ATOM     16  C   UNL     1     -13.098  13.265  72.383  0.00  0.00    +0.103 C 
ATOM     17  N   UNL     1     -13.421  14.046  73.190  0.00  0.00    -0.191 NA
ENDBRANCH   3  16
BRANCH   4  18
ATOM     18  O   UNL     1     -13.405  10.473  71.902  0.00  0.00    -0.475 OA
BRANCH  18  19
ATOM     19  C   UNL     1     -12.946   9.205  72.338  0.00  0.00    +0.205 C 
BRANCH  19  20
ATOM     20  C   UNL     1     -13.617   8.180  71.434  0.00  0.00    +0.044 C 
ATOM     21  C   UNL     1     -14.971   7.799  71.984  0.00  0.00    +0.004 C 
ATOM     22  C   UNL     1     -12.727   6.971  71.300  0.00  0.00    +0.004 C 
ENDBRANCH  19  20
ENDBRANCH  18  19
ENDBRANCH   4  18
TORSDOF 6
ENDMDL
MODEL 2
REMARK VINA RESULT:      -6.5      4.097      5.305
REMARK  Name = 
REMARK  6 active torsions:
REMARK  status: ('A' for Active; 'I' for Inactive)
REMARK    1  A    between atoms: C_4  and  C_5
REMARK    2  A    between atoms: C_8  and  O_9
REMARK    3  A    between atoms: O_9  and  C_10
REMARK    4  A    between atoms: C_10  and  C_11
REMARK    5  A    between atoms: C_14  and  C_15
REMARK    6  A    between atoms: C_19  and  C_20
REMARK                            x       y       z     vdW  Elec       q    Type
REMARK                         _______ _______ _______ _____ _____    ______ ____
ROOT
ATOM      1  C   UNL     1     -11.413  13.576  67.619  0.00  0.00    +0.025 A 
ATOM      2  C   UNL     1     -11.091  14.927  67.573  0.00  0.00    +0.015 A 
ATOM      3  C   UNL     1     -11.229  15.730  68.698  0.00  0.00    +0.102 A 
ATOM      4  C   UNL     1     -11.817  15.149  69.814  0.00  0.00    +0.148 A 
ATOM      5  C   UNL     1     -11.841  13.773  70.001  0.00  0.00    +0.038 A 
ATOM      6  C   UNL     1     -11.467  13.022  68.892  0.00  0.00    +0.005 A 
ENDROOT
BRANCH   1  11
ATOM      7  C   UNL     1     -12.519  11.879  63.185  0.00  0.00    +0.053 C 
ATOM      8  C   UNL     1     -11.616  11.962  64.380  0.00  0.00    +0.072 A 
ATOM      9  C   UNL     1     -10.433  11.235  64.466  0.00  0.00    +0.124 A 
ATOM     10  S   UNL     1     -10.022  11.536  66.108  0.00  0.00    -0.060 S 
ATOM     11  C   UNL     1     -11.233  12.710  66.445  0.00  0.00    +0.111 A 
ATOM     12  N   UNL     1     -11.597  13.026  65.177  0.00  0.00    -0.242 NA
BRANCH   9  13
ATOM     13  C   UNL     1      -9.707  10.544  63.399  0.00  0.00    +0.395 C 
ATOM     14  O   UNL     1      -9.147  11.225  62.321  0.00  0.00    -0.240 OA
ATOM     15  O   UNL     1      -9.261   9.378  63.609  0.00  0.00    -0.240 OA
ENDBRANCH   9  13
ENDBRANCH   1  11
BRANCH   3  16
ATOM     16  C   UNL     1     -10.640  17.049  68.763  0.00  0.00    +0.103 C 
ATOM     17  N   UNL     1     -10.397  18.182  68.612  0.00  0.00    -0.191 NA
ENDBRANCH   3  16
BRANCH   4  18
ATOM     18  O   UNL     1     -12.472  16.021  70.688  0.00  0.00    -0.475 OA
BRANCH  18  19
ATOM     19  C   UNL     1     -11.902  16.239  71.967  0.00  0.00    +0.205 C 
BRANCH  19  20
ATOM     20  C   UNL     1     -13.023  16.013  72.973  0.00  0.00    +0.044 C 
ATOM     21  C   UNL     1     -12.516  15.226  74.157  0.00  0.00    +0.004 C 
ATOM     22  C   UNL     1     -14.166  15.299  72.297  0.00  0.00    +0.004 C 
ENDBRANCH  19  20
ENDBRANCH  18  19
ENDBRANCH   4  18
TORSDOF 6
ENDMDL
MODEL 3
REMARK VINA RESULT:      -6.4      3.172      7.809
REMARK  Name = 
REMARK  6 active torsions:
REMARK  status: ('A' for Active; 'I' for Inactive)
REMARK    1  A    between atoms: C_4  and  C_5
REMARK    2  A    between atoms: C_8  and  O_9
REMARK    3  A    between atoms: O_9  and  C_10
REMARK    4  A    between atoms: C_10  and  C_11
REMARK    5  A    between atoms: C_14  and  C_15
REMARK    6  A    between atoms: C_19  and  C_20
REMARK                            x       y       z     vdW  Elec       q    Type
REMARK                         _______ _______ _______ _____ _____    ______ ____
ROOT
ATOM      1  C   UNL     1     -12.276  12.019  70.718  0.00  0.00    +0.025 A 
ATOM      2  C   UNL     1     -12.949  12.987  71.454  0.00  0.00    +0.015 A 
ATOM      3  C   UNL     1     -12.874  14.329  71.102  0.00  0.00    +0.102 A 
ATOM      4  C   UNL     1     -12.003  14.658  70.072  0.00  0.00    +0.148 A 
ATOM      5  C   UNL     1     -11.588  13.724  69.132  0.00  0.00    +0.038 A 
ATOM      6  C   UNL     1     -11.899  12.404  69.437  0.00  0.00    +0.005 A 
ENDROOT
BRANCH   1  11
ATOM      7  C   UNL     1     -14.665   7.933  71.885  0.00  0.00    +0.053 C 
ATOM      8  C   UNL     1     -13.418   8.666  71.489  0.00  0.00    +0.072 A 
ATOM      9  C   UNL     1     -12.194   8.022  71.342  0.00  0.00    +0.124 A 
ATOM     10  S   UNL     1     -11.162   9.384  71.161  0.00  0.00    -0.060 S 
ATOM     11  C   UNL     1     -12.381  10.593  71.059  0.00  0.00    +0.111 A 
ATOM     12  N   UNL     1     -13.457   9.806  70.805  0.00  0.00    -0.242 NA
BRANCH   9  13
ATOM     13  C   UNL     1     -11.927   6.585  71.234  0.00  0.00    +0.395 C 
ATOM     14  O   UNL     1     -11.455   6.005  70.061  0.00  0.00    -0.240 OA
ATOM     15  O   UNL     1     -11.772   5.904  72.290  0.00  0.00    -0.240 OA
ENDBRANCH   9  13
ENDBRANCH   1  11
BRANCH   3  16
ATOM     16  C   UNL     1     -13.779  15.309  71.661  0.00  0.00    +0.103 C 
ATOM     17  N   UNL     1     -14.401  15.981  72.386  0.00  0.00    -0.191 NA
ENDBRANCH   3  16
BRANCH   4  18
ATOM     18  O   UNL     1     -11.488  15.957  70.095  0.00  0.00    -0.475 OA
BRANCH  18  19
ATOM     19  C   UNL     1     -10.268  16.204  69.418  0.00  0.00    +0.205 C 
BRANCH  19  20
ATOM     20  C   UNL     1     -10.588  17.220  68.329  0.00  0.00    +0.044 C 
ATOM     21  C   UNL     1     -10.313  16.632  66.965  0.00  0.00    +0.004 C 
ATOM     22  C   UNL     1      -9.776  18.469  68.554  0.00  0.00    +0.004 C 
ENDBRANCH  19  20
ENDBRANCH  18  19
ENDBRANCH   4  18
TORSDOF 6
ENDMDL
MODEL 4
REMARK VINA RESULT:      -6.4      3.688      9.016
REMARK  Name = 
REMARK  6 active torsions:
REMARK  status: ('A' for Active; 'I' for Inactive)
REMARK    1  A    between atoms: C_4  and  C_5
REMARK    2  A    between atoms: C_8  and  O_9
REMARK    3  A    between atoms: O_9  and  C_10
REMARK    4  A    between atoms: C_10  and  C_11
REMARK    5  A    between atoms: C_14  and  C_15
REMARK    6  A    between atoms: C_19  and  C_20
REMARK                            x       y       z     vdW  Elec       q    Type
REMARK                         _______ _______ _______ _____ _____    ______ ____
ROOT
ATOM      1  C   UNL     1     -10.285  16.070  68.416  0.00  0.00    +0.025 A 
ATOM      2  C   UNL     1     -10.465  17.387  68.009  0.00  0.00    +0.015 A 
ATOM      3  C   UNL     1      -9.801  17.885  66.894  0.00  0.00    +0.102 A 
ATOM      4  C   UNL     1      -8.868  17.049  66.297  0.00  0.00    +0.148 A 
ATOM      5  C   UNL     1      -8.902  15.670  66.460  0.00  0.00    +0.038 A 
ATOM      6  C   UNL     1      -9.767  15.217  67.449  0.00  0.00    +0.005 A 
ENDROOT
BRANCH   1  11
ATOM      7  C   UNL     1     -12.107  16.192  72.935  0.00  0.00    +0.053 C 
ATOM      8  C   UNL     1     -11.964  15.553  71.587  0.00  0.00    +0.072 A 
ATOM      9  C   UNL     1     -12.588  14.352  71.265  0.00  0.00    +0.124 A 
ATOM     10  S   UNL     1     -11.843  14.029  69.750  0.00  0.00    -0.060 S 
ATOM     11  C   UNL     1     -11.012  15.524  69.570  0.00  0.00    +0.111 A 
ATOM     12  N   UNL     1     -11.673  16.260  70.498  0.00  0.00    -0.242 NA
BRANCH   9  13
ATOM     13  C   UNL     1     -13.669  13.668  71.977  0.00  0.00    +0.395 C 
ATOM     14  O   UNL     1     -14.968  14.166  72.008  0.00  0.00    -0.240 OA
ATOM     15  O   UNL     1     -13.539  12.443  72.270  0.00  0.00    -0.240 OA
ENDBRANCH   9  13
ENDBRANCH   1  11
BRANCH   3  16
ATOM     16  C   UNL     1     -10.183  19.139  66.285  0.00  0.00    +0.103 C 
ATOM     17  N   UNL     1     -10.587  19.961  65.560  0.00  0.00    -0.191 NA
ENDBRANCH   3  16
BRANCH   4  18
ATOM     18  O   UNL     1      -7.831  17.681  65.605  0.00  0.00    -0.475 OA
BRANCH  18  19
ATOM     19  C   UNL     1      -6.544  17.698  66.198  0.00  0.00    +0.205 C 
BRANCH  19  20
ATOM     20  C   UNL     1      -6.154  19.166  66.317  0.00  0.00    +0.044 C 
ATOM     21  C   UNL     1      -6.647  19.737  67.625  0.00  0.00    +0.004 C 
ATOM     22  C   UNL     1      -6.715  19.930  65.146  0.00  0.00    +0.004 C 
ENDBRANCH  19  20
ENDBRANCH  18  19
ENDBRANCH   4  18
TORSDOF 6
ENDMDL
MODEL 5
REMARK VINA RESULT:      -6.3      2.262      3.182
REMARK  Name = 
REMARK  6 active torsions:
REMARK  status: ('A' for Active; 'I' for Inactive)
REMARK    1  A    between atoms: C_4  and  C_5
REMARK    2  A    between atoms: C_8  and  O_9
REMARK    3  A    between atoms: O_9  and  C_10
REMARK    4  A    between atoms: C_10  and  C_11
REMARK    5  A    between atoms: C_14  and  C_15
REMARK    6  A    between atoms: C_19  and  C_20
REMARK                            x       y       z     vdW  Elec       q    Type
REMARK                         _______ _______ _______ _____ _____    ______ ____
ROOT
ATOM      1  C   UNL     1     -11.117  11.347  67.936  0.00  0.00    +0.025 A 
ATOM      2  C   UNL     1     -10.523  10.096  67.813  0.00  0.00    +0.015 A 
ATOM      3  C   UNL     1     -10.570   9.180  68.856  0.00  0.00    +0.102 A 
ATOM      4  C   UNL     1     -11.120   9.620  70.052  0.00  0.00    +0.148 A 
ATOM      5  C   UNL     1     -11.990  10.702  70.108  0.00  0.00    +0.038 A 
ATOM      6  C   UNL     1     -12.070  11.453  68.941  0.00  0.00    +0.005 A 
ENDROOT
BRANCH   1  11
ATOM      7  C   UNL     1     -12.124  12.862  63.414  0.00  0.00    +0.053 C 
ATOM      8  C   UNL     1     -11.627  13.105  64.807  0.00  0.00    +0.072 A 
ATOM      9  C   UNL     1     -11.141  14.343  65.216  0.00  0.00    +0.124 A 
ATOM     10  S   UNL     1     -10.502  13.916  66.753  0.00  0.00    -0.060 S 
ATOM     11  C   UNL     1     -11.107  12.308  66.824  0.00  0.00    +0.111 A 
ATOM     12  N   UNL     1     -12.039  12.375  65.840  0.00  0.00    -0.242 NA
BRANCH   9  13
ATOM     13  C   UNL     1     -11.283  15.641  64.554  0.00  0.00    +0.395 C 
ATOM     14  O   UNL     1     -12.425  15.989  63.839  0.00  0.00    -0.240 OA
ATOM     15  O   UNL     1     -10.540  16.602  64.911  0.00  0.00    -0.240 OA
ENDBRANCH   9  13
ENDBRANCH   1  11
BRANCH   3  16
ATOM     16  C   UNL     1     -10.221   7.791  68.658  0.00  0.00    +0.103 C 
ATOM     17  N   UNL     1      -9.757   6.722  68.751  0.00  0.00    -0.191 NA
ENDBRANCH   3  16
BRANCH   4  18
ATOM     18  O   UNL     1     -10.670   8.979  71.209  0.00  0.00    -0.475 OA
BRANCH  18  19
ATOM     19  C   UNL     1     -11.637   8.506  72.131  0.00  0.00    +0.205 C 
BRANCH  19  20
ATOM     20  C   UNL     1     -12.274   7.283  71.483  0.00  0.00    +0.044 C 
ATOM     21  C   UNL     1     -13.778   7.356  71.586  0.00  0.00    +0.004 C 
ATOM     22  C   UNL     1     -11.746   6.035  72.143  0.00  0.00    +0.004 C 
ENDBRANCH  19  20
ENDBRANCH  18  19
ENDBRANCH   4  18
TORSDOF 6
ENDMDL
MODEL 6
REMARK VINA RESULT:      -6.3      4.741      9.293
REMARK  Name = 
REMARK  6 active torsions:
REMARK  status: ('A' for Active; 'I' for Inactive)
REMARK    1  A    between atoms: C_4  and  C_5
REMARK    2  A    between atoms: C_8  and  O_9
REMARK    3  A    between atoms: O_9  and  C_10
REMARK    4  A    between atoms: C_10  and  C_11
REMARK    5  A    between atoms: C_14  and  C_15
REMARK    6  A    between atoms: C_19  and  C_20
REMARK                            x       y       z     vdW  Elec       q    Type
REMARK                         _______ _______ _______ _____ _____    ______ ____
ROOT
ATOM      1  C   UNL     1      -9.425  17.808  67.362  0.00  0.00    +0.025 A 
ATOM      2  C   UNL     1      -8.370  18.008  68.244  0.00  0.00    +0.015 A 
ATOM      3  C   UNL     1      -7.750  19.248  68.344  0.00  0.00    +0.102 A 
ATOM      4  C   UNL     1      -8.151  20.222  67.439  0.00  0.00    +0.148 A 
ATOM      5  C   UNL     1      -9.382  20.169  66.797  0.00  0.00    +0.038 A 
ATOM      6  C   UNL     1     -10.062  18.964  66.928  0.00  0.00    +0.005 A 
ENDROOT
BRANCH   1  11
ATOM      7  C   UNL     1     -11.990  14.060  69.131  0.00  0.00    +0.053 C 
ATOM      8  C   UNL     1     -11.374  14.818  67.994  0.00  0.00    +0.072 A 
ATOM      9  C   UNL     1     -11.451  14.372  66.679  0.00  0.00    +0.124 A 
ATOM     10  S   UNL     1     -10.367  15.476  65.929  0.00  0.00    -0.060 S 
ATOM     11  C   UNL     1     -10.112  16.511  67.279  0.00  0.00    +0.111 A 
ATOM     12  N   UNL     1     -11.156  16.128  68.055  0.00  0.00    -0.242 NA
BRANCH   9  13
ATOM     13  C   UNL     1     -12.327  13.344  66.113  0.00  0.00    +0.395 C 
ATOM     14  O   UNL     1     -13.214  13.614  65.075  0.00  0.00    -0.240 OA
ATOM     15  O   UNL     1     -12.050  12.123  66.301  0.00  0.00    -0.240 OA
ENDBRANCH   9  13
ENDBRANCH   1  11
BRANCH   3  16
ATOM     16  C   UNL     1      -6.859  19.562  69.438  0.00  0.00    +0.103 C 
ATOM     17  N   UNL     1      -6.169  20.109  70.206  0.00  0.00    -0.191 NA
ENDBRANCH   3  16
BRANCH   4  18
ATOM     18  O   UNL     1      -7.205  21.205  67.136  0.00  0.00    -0.475 OA
BRANCH  18  19
ATOM     19  C   UNL     1      -6.068  20.826  66.379  0.00  0.00    +0.205 C 
BRANCH  19  20
ATOM     20  C   UNL     1      -6.602  20.117  65.141  0.00  0.00    +0.044 C 
ATOM     21  C   UNL     1      -6.074  18.704  65.075  0.00  0.00    +0.004 C 
ATOM     22  C   UNL     1      -6.216  20.898  63.911  0.00  0.00    +0.004 C 
ENDBRANCH  19  20
ENDBRANCH  18  19
ENDBRANCH   4  18
TORSDOF 6
ENDMDL
MODEL 7
REMARK VINA RESULT:      -6.2      2.020      2.513
REMARK  Name = 
REMARK  6 active torsions:
REMARK  status: ('A' for Active; 'I' for Inactive)
REMARK    1  A    between atoms: C_4  and  C_5
REMARK    2  A    between atoms: C_8  and  O_9
REMARK    3  A    between atoms: O_9  and  C_10
REMARK    4  A    between atoms: C_10  and  C_11
REMARK    5  A    between atoms: C_14  and  C_15
REMARK    6  A    between atoms: C_19  and  C_20
REMARK                            x       y       z     vdW  Elec       q    Type
REMARK                         _______ _______ _______ _____ _____    ______ ____
ROOT
ATOM      1  C   UNL     1     -10.829  11.386  68.020  0.00  0.00    +0.025 A 
ATOM      2  C   UNL     1     -11.895  11.225  68.897  0.00  0.00    +0.015 A 
ATOM      3  C   UNL     1     -11.792  10.382  69.997  0.00  0.00    +0.102 A 
ATOM      4  C   UNL     1     -10.632   9.624  70.097  0.00  0.00    +0.148 A 
ATOM      5  C   UNL     1      -9.456   9.989  69.455  0.00  0.00    +0.038 A 
ATOM      6  C   UNL     1      -9.589  11.008  68.520  0.00  0.00    +0.005 A 
ENDROOT
BRANCH   1  11
ATOM      7  C   UNL     1     -12.063  12.672  63.483  0.00  0.00    +0.053 C 
ATOM      8  C   UNL     1     -11.545  12.996  64.852  0.00  0.00    +0.072 A 
ATOM      9  C   UNL     1     -11.134  14.277  65.205  0.00  0.00    +0.124 A 
ATOM     10  S   UNL     1     -10.425  13.949  66.736  0.00  0.00    -0.060 S 
ATOM     11  C   UNL     1     -10.915  12.306  66.877  0.00  0.00    +0.111 A 
ATOM     12  N   UNL     1     -11.877  12.277  65.920  0.00  0.00    -0.242 NA
BRANCH   9  13
ATOM     13  C   UNL     1     -11.382  15.540  64.506  0.00  0.00    +0.395 C 
ATOM     14  O   UNL     1     -12.594  15.815  63.880  0.00  0.00    -0.240 OA
ATOM     15  O   UNL     1     -10.649  16.541  64.757  0.00  0.00    -0.240 OA
ENDBRANCH   9  13
ENDBRANCH   1  11
BRANCH   3  16
ATOM     16  C   UNL     1     -12.761  10.415  71.069  0.00  0.00    +0.103 C 
ATOM     17  N   UNL     1     -13.415  10.160  72.003  0.00  0.00    -0.191 NA
ENDBRANCH   3  16
BRANCH   4  18
ATOM     18  O   UNL     1     -10.745   8.420  70.797  0.00  0.00    -0.475 OA
BRANCH  18  19
ATOM     19  C   UNL     1      -9.997   8.269  71.992  0.00  0.00    +0.205 C 
BRANCH  19  20
ATOM     20  C   UNL     1     -10.878   7.470  72.943  0.00  0.00    +0.044 C 
ATOM     21  C   UNL     1     -10.042   6.841  74.032  0.00  0.00    +0.004 C 
ATOM     22  C   UNL     1     -11.632   6.422  72.166  0.00  0.00    +0.004 C 
ENDBRANCH  19  20
ENDBRANCH  18  19
ENDBRANCH   4  18
TORSDOF 6
ENDMDL
MODEL 8
REMARK VINA RESULT:      -6.2      3.814      5.575
REMARK  Name = 
REMARK  6 active torsions:
REMARK  status: ('A' for Active; 'I' for Inactive)
REMARK    1  A    between atoms: C_4  and  C_5
REMARK    2  A    between atoms: C_8  and  O_9
REMARK    3  A    between atoms: O_9  and  C_10
REMARK    4  A    between atoms: C_10  and  C_11
REMARK    5  A    between atoms: C_14  and  C_15
REMARK    6  A    between atoms: C_19  and  C_20
REMARK                            x       y       z     vdW  Elec       q    Type
REMARK                         _______ _______ _______ _____ _____    ______ ____
ROOT
ATOM      1  C   UNL     1     -10.662  15.315  67.710  0.00  0.00    +0.025 A 
ATOM      2  C   UNL     1     -11.061  14.726  66.516  0.00  0.00    +0.015 A 
ATOM      3  C   UNL     1     -11.761  13.526  66.513  0.00  0.00    +0.102 A 
ATOM      4  C   UNL     1     -11.924  12.894  67.738  0.00  0.00    +0.148 A 
ATOM      5  C   UNL     1     -11.840  13.585  68.941  0.00  0.00    +0.038 A 
ATOM      6  C   UNL     1     -11.339  14.877  68.842  0.00  0.00    +0.005 A 
ENDROOT
BRANCH   1  11
ATOM      7  C   UNL     1     -10.367  20.178  67.549  0.00  0.00    +0.053 C 
ATOM      8  C   UNL     1      -9.758  18.825  67.766  0.00  0.00    +0.072 A 
ATOM      9  C   UNL     1      -8.413  18.659  68.077  0.00  0.00    +0.124 A 
ATOM     10  S   UNL     1      -8.284  16.951  67.931  0.00  0.00    -0.060 S 
ATOM     11  C   UNL     1      -9.956  16.605  67.725  0.00  0.00    +0.111 A 
ATOM     12  N   UNL     1     -10.483  17.779  68.153  0.00  0.00    -0.242 NA
BRANCH   9  13
ATOM     13  C   UNL     1      -7.451  19.665  68.533  0.00  0.00    +0.395 C 
ATOM     14  O   UNL     1      -6.797  19.565  69.758  0.00  0.00    -0.240 OA
ATOM     15  O   UNL     1      -6.925  20.446  67.687  0.00  0.00    -0.240 OA
ENDBRANCH   9  13
ENDBRANCH   1  11
BRANCH   3  16
ATOM     16  C   UNL     1     -12.430  13.045  65.326  0.00  0.00    +0.103 C 
ATOM     17  N   UNL     1     -13.109  12.461  64.575  0.00  0.00    -0.191 NA
ENDBRANCH   3  16
BRANCH   4  18
ATOM     18  O   UNL     1     -12.077  11.505  67.697  0.00  0.00    -0.475 OA
BRANCH  18  19
ATOM     19  C   UNL     1     -10.961  10.700  68.035  0.00  0.00    +0.205 C 
BRANCH  19  20
ATOM     20  C   UNL     1     -10.436  10.135  66.722  0.00  0.00    +0.044 C 
ATOM     21  C   UNL     1     -10.263   8.638  66.825  0.00  0.00    +0.004 C 
ATOM     22  C   UNL     1      -9.134  10.808  66.371  0.00  0.00    +0.004 C 
ENDBRANCH  19  20
ENDBRANCH  18  19
ENDBRANCH   4  18
TORSDOF 6
ENDMDL
MODEL 9
REMARK VINA RESULT:      -6.2      3.095      7.624
REMARK  Name = 
REMARK  6 active torsions:
REMARK  status: ('A' for Active; 'I' for Inactive)
REMARK    1  A    between atoms: C_4  and  C_5
REMARK    2  A    between atoms: C_8  and  O_9
REMARK    3  A    between atoms: O_9  and  C_10
REMARK    4  A    between atoms: C_10  and  C_11
REMARK    5  A    between atoms: C_14  and  C_15
REMARK    6  A    between atoms: C_19  and  C_20
REMARK                            x       y       z     vdW  Elec       q    Type
REMARK                         _______ _______ _______ _____ _____    ______ ____
ROOT
ATOM      1  C   UNL     1     -11.651  12.393  69.688  0.00  0.00    +0.025 A 
ATOM      2  C   UNL     1     -12.261  13.217  70.626  0.00  0.00    +0.015 A 
ATOM      3  C   UNL     1     -12.572  14.537  70.320  0.00  0.00    +0.102 A 
ATOM      4  C   UNL     1     -12.131  15.015  69.093  0.00  0.00    +0.148 A 
ATOM      5  C   UNL     1     -11.829  14.165  68.037  0.00  0.00    +0.038 A 
ATOM      6  C   UNL     1     -11.757  12.817  68.369  0.00  0.00    +0.005 A 
ENDROOT
BRANCH   1  11
ATOM      7  C   UNL     1     -11.897   8.309  72.338  0.00  0.00    +0.053 C 
ATOM      8  C   UNL     1     -11.513   9.056  71.095  0.00  0.00    +0.072 A 
ATOM      9  C   UNL     1     -10.860   8.439  70.032  0.00  0.00    +0.124 A 
ATOM     10  S   UNL     1     -10.471   9.820  69.085  0.00  0.00    -0.060 S 
ATOM     11  C   UNL     1     -11.355  10.985  69.989  0.00  0.00    +0.111 A 
ATOM     12  N   UNL     1     -12.152  10.155  70.707  0.00  0.00    -0.242 NA
BRANCH   9  13
ATOM     13  C   UNL     1     -10.700   7.008  69.767  0.00  0.00    +0.395 C 
ATOM     14  O   UNL     1      -9.582   6.296  70.193  0.00  0.00    -0.240 OA
ATOM     15  O   UNL     1     -11.717   6.316  69.470  0.00  0.00    -0.240 OA
ENDBRANCH   9  13
ENDBRANCH   1  11
BRANCH   3  16
ATOM     16  C   UNL     1     -13.452  15.320  71.157  0.00  0.00    +0.103 C 
ATOM     17  N   UNL     1     -14.245  15.666  71.942  0.00  0.00    -0.191 NA
ENDBRANCH   3  16
BRANCH   4  18
ATOM     18  O   UNL     1     -11.912  16.393  69.014  0.00  0.00    -0.475 OA
BRANCH  18  19
ATOM     19  C   UNL     1     -10.576  16.851  68.887  0.00  0.00    +0.205 C 
BRANCH  19  20
ATOM     20  C   UNL     1     -10.542  17.709  67.630  0.00  0.00    +0.044 C 
ATOM     21  C   UNL     1      -9.647  17.080  66.588  0.00  0.00    +0.004 C 
ATOM     22  C   UNL     1     -10.070  19.096  67.983  0.00  0.00    +0.004 C 
ENDBRANCH  19  20
ENDBRANCH  18  19
ENDBRANCH   4  18
TORSDOF 6
ENDMDL
