MODEL 1
REMARK VINA RESULT:      -6.4      0.000      0.000
REMARK  Name = 
REMARK  1 active torsions:
REMARK  status: ('A' for Active; 'I' for Inactive)
REMARK    1  A    between atoms: C_2  and  C_3
REMARK                            x       y       z     vdW  Elec       q    Type
REMARK                         _______ _______ _______ _____ _____    ______ ____
ROOT
ATOM      1  C   UNL     1      -8.168  18.490  66.842  0.00  0.00    +0.180 C 
ATOM      2  C   UNL     1      -9.306  17.543  66.782  0.00  0.00    +0.037 C 
ATOM      3  C   UNL     1      -9.292  17.195  68.386  0.00  0.00    +0.003 C 
ATOM      4  C   UNL     1     -10.918  16.670  68.354  0.00  0.00    +0.001 C 
ATOM      5  C   UNL     1     -10.427  15.110  67.925  0.00  0.00    +0.004 C 
ATOM      6  C   UNL     1     -10.408  15.464  66.347  0.00  0.00    +0.000 C 
ATOM      7  C   UNL     1     -12.062  14.597  67.865  0.00  0.00    +0.019 C 
ATOM      8  C   UNL     1     -12.056  14.285  69.453  0.00  0.00    -0.042 C 
ATOM      9  C   UNL     1     -12.438  13.103  69.847  0.00  0.00    +0.029 C 
ATOM     10  C   UNL     1     -11.441  12.060  69.509  0.00  0.00    +0.173 C 
ATOM     11  C   UNL     1     -10.606  12.590  68.375  0.00  0.00    +0.069 C 
ATOM     12  O   UNL     1     -11.754  10.832  69.520  0.00  0.00    -0.291 OA
ATOM     13  C   UNL     1     -12.180  15.547  70.219  0.00  0.00    +0.022 C 
ATOM     14  C   UNL     1     -11.620  13.076  67.394  0.00  0.00    +0.012 C 
ATOM     15  C   UNL     1     -10.891  16.313  69.934  0.00  0.00    +0.004 C 
ATOM     16  C   UNL     1      -9.714  18.750  68.705  0.00  0.00    +0.004 C 
ATOM     17  C   UNL     1     -10.562  18.287  66.508  0.00  0.00    +0.003 C 
ATOM     18  C   UNL     1      -9.124  16.256  66.102  0.00  0.00    +0.003 C 
ATOM     19  C   UNL     1      -8.469  19.354  68.063  0.00  0.00    +0.043 C 
ATOM     20  O   UNL     1      -8.190  19.372  65.750  0.00  0.00    -0.212 OA
ENDROOT
BRANCH   1  22
ATOM     21  C   UNL     1      -5.892  17.471  67.032  0.00  0.00    -0.012 C 
ATOM     22  C   UNL     1      -6.857  17.829  66.966  0.00  0.00    -0.049 C 
ENDBRANCH   1  22
TORSDOF 1
ENDMDL
MODEL 2
REMARK VINA RESULT:      -6.4      1.727      5.966
REMARK  Name = 
REMARK  1 active torsions:
REMARK  status: ('A' for Active; 'I' for Inactive)
REMARK    1  A    between atoms: C_2  and  C_3
REMARK                            x       y       z     vdW  Elec       q    Type
REMARK                         _______ _______ _______ _____ _____    ______ ____
ROOT
ATOM      1  C   UNL     1     -11.140  12.003  66.083  0.00  0.00    +0.180 C 
ATOM      2  C   UNL     1     -10.247  13.126  66.451  0.00  0.00    +0.037 C 
ATOM      3  C   UNL     1     -11.392  13.957  67.283  0.00  0.00    +0.003 C 
ATOM      4  C   UNL     1     -10.215  14.822  68.171  0.00  0.00    +0.001 C 
ATOM      5  C   UNL     1     -10.128  15.993  66.953  0.00  0.00    +0.004 C 
ATOM      6  C   UNL     1      -9.024  15.156  66.118  0.00  0.00    +0.000 C 
ATOM      7  C   UNL     1      -8.925  16.839  67.835  0.00  0.00    +0.019 C 
ATOM      8  C   UNL     1     -10.056  17.635  68.677  0.00  0.00    -0.042 C 
ATOM      9  C   UNL     1      -9.993  18.935  68.710  0.00  0.00    +0.029 C 
ATOM     10  C   UNL     1     -10.357  19.539  67.407  0.00  0.00    +0.173 C 
ATOM     11  C   UNL     1     -10.147  18.487  66.352  0.00  0.00    +0.069 C 
ATOM     12  O   UNL     1     -10.061  20.743  67.142  0.00  0.00    -0.291 OA
ATOM     13  C   UNL     1     -10.617  16.756  69.729  0.00  0.00    +0.022 C 
ATOM     14  C   UNL     1      -8.776  17.973  66.642  0.00  0.00    +0.012 C 
ATOM     15  C   UNL     1     -11.351  15.651  68.974  0.00  0.00    +0.004 C 
ATOM     16  C   UNL     1     -11.446  12.739  68.384  0.00  0.00    +0.004 C 
ATOM     17  C   UNL     1      -9.240  12.661  67.441  0.00  0.00    +0.003 C 
ATOM     18  C   UNL     1      -9.786  14.040  65.402  0.00  0.00    +0.003 C 
ATOM     19  C   UNL     1     -11.881  11.678  67.377  0.00  0.00    +0.043 C 
ATOM     20  O   UNL     1     -10.399  10.850  65.781  0.00  0.00    -0.212 OA
ENDROOT
BRANCH   1  22
ATOM     21  C   UNL     1     -12.744  12.444  64.216  0.00  0.00    -0.012 C 
ATOM     22  C   UNL     1     -12.081  12.330  64.998  0.00  0.00    -0.049 C 
ENDBRANCH   1  22
TORSDOF 1
ENDMDL
MODEL 3
REMARK VINA RESULT:      -6.4      2.105      3.508
REMARK  Name = 
REMARK  1 active torsions:
REMARK  status: ('A' for Active; 'I' for Inactive)
REMARK    1  A    between atoms: C_2  and  C_3
REMARK                            x       y       z     vdW  Elec       q    Type
REMARK                         _______ _______ _______ _____ _____    ______ ____
ROOT
ATOM      1  C   UNL     1     -10.061  15.637  66.456  0.00  0.00    +0.180 C 
ATOM      2  C   UNL     1     -10.604  14.277  66.680  0.00  0.00    +0.037 C 
ATOM      3  C   UNL     1     -10.554  14.367  68.319  0.00  0.00    +0.003 C 
ATOM      4  C   UNL     1     -11.727  13.136  68.489  0.00  0.00    +0.001 C 
ATOM      5  C   UNL     1     -10.522  11.951  68.431  0.00  0.00    +0.004 C 
ATOM      6  C   UNL     1     -10.549  11.888  66.816  0.00  0.00    +0.000 C 
ATOM      7  C   UNL     1     -11.707  10.720  68.572  0.00  0.00    +0.019 C 
ATOM      8  C   UNL     1     -11.679  10.832  70.187  0.00  0.00    -0.042 C 
ATOM      9  C   UNL     1     -11.483   9.743  70.873  0.00  0.00    +0.029 C 
ATOM     10  C   UNL     1     -10.088   9.259  70.756  0.00  0.00    +0.173 C 
ATOM     11  C   UNL     1      -9.518   9.841  69.490  0.00  0.00    +0.069 C 
ATOM     12  O   UNL     1      -9.780   8.073  71.081  0.00  0.00    -0.291 OA
ATOM     13  C   UNL     1     -12.447  12.020  70.626  0.00  0.00    +0.022 C 
ATOM     14  C   UNL     1     -10.561   9.534  68.467  0.00  0.00    +0.012 C 
ATOM     15  C   UNL     1     -11.658  13.218  70.105  0.00  0.00    +0.004 C 
ATOM     16  C   UNL     1     -11.687  15.555  68.267  0.00  0.00    +0.004 C 
ATOM     17  C   UNL     1     -12.038  14.240  66.290  0.00  0.00    +0.003 C 
ATOM     18  C   UNL     1      -9.780  13.117  66.327  0.00  0.00    +0.003 C 
ATOM     19  C   UNL     1     -10.832  16.511  67.442  0.00  0.00    +0.043 C 
ATOM     20  O   UNL     1     -10.413  16.115  65.184  0.00  0.00    -0.212 OA
ENDROOT
BRANCH   1  22
ATOM     21  C   UNL     1      -7.612  15.913  66.875  0.00  0.00    -0.012 C 
ATOM     22  C   UNL     1      -8.609  15.736  66.679  0.00  0.00    -0.049 C 
ENDBRANCH   1  22
TORSDOF 1
ENDMDL
MODEL 4
REMARK VINA RESULT:      -6.3      3.172      6.996
REMARK  Name = 
REMARK  1 active torsions:
REMARK  status: ('A' for Active; 'I' for Inactive)
REMARK    1  A    between atoms: C_2  and  C_3
REMARK                            x       y       z     vdW  Elec       q    Type
REMARK                         _______ _______ _______ _____ _____    ______ ____
ROOT
ATOM      1  C   UNL     1      -8.467   9.372  67.929  0.00  0.00    +0.180 C 
ATOM      2  C   UNL     1      -9.484  10.449  67.898  0.00  0.00    +0.037 C 
ATOM      3  C   UNL     1      -9.489  10.599  66.263  0.00  0.00    +0.003 C 
ATOM      4  C   UNL     1     -11.041  11.315  66.267  0.00  0.00    +0.001 C 
ATOM      5  C   UNL     1     -10.357  12.845  66.491  0.00  0.00    +0.004 C 
ATOM      6  C   UNL     1     -10.322  12.682  68.100  0.00  0.00    +0.000 C 
ATOM      7  C   UNL     1     -11.919  13.553  66.525  0.00  0.00    +0.019 C 
ATOM      8  C   UNL     1     -11.935  13.671  64.911  0.00  0.00    -0.042 C 
ATOM      9  C   UNL     1     -12.191  14.835  64.384  0.00  0.00    +0.029 C 
ATOM     10  C   UNL     1     -11.069  15.784  64.569  0.00  0.00    +0.173 C 
ATOM     11  C   UNL     1     -10.260  15.296  65.741  0.00  0.00    +0.069 C 
ATOM     12  O   UNL     1     -11.238  17.031  64.415  0.00  0.00    -0.291 OA
ATOM     13  C   UNL     1     -12.232  12.351  64.308  0.00  0.00    +0.022 C 
ATOM     14  C   UNL     1     -11.287  15.056  66.796  0.00  0.00    +0.012 C 
ATOM     15  C   UNL     1     -11.031  11.476  64.655  0.00  0.00    +0.004 C 
ATOM     16  C   UNL     1     -10.100   9.079  66.147  0.00  0.00    +0.004 C 
ATOM     17  C   UNL     1     -10.808   9.897  68.289  0.00  0.00    +0.003 C 
ATOM     18  C   UNL     1      -9.130  11.776  68.411  0.00  0.00    +0.003 C 
ATOM     19  C   UNL     1      -8.910   8.411  66.829  0.00  0.00    +0.043 C 
ATOM     20  O   UNL     1      -8.551   8.635  69.120  0.00  0.00    -0.212 OA
ENDROOT
BRANCH   1  22
ATOM     21  C   UNL     1      -6.118  10.093  67.466  0.00  0.00    -0.012 C 
ATOM     22  C   UNL     1      -7.094   9.852  67.695  0.00  0.00    -0.049 C 
ENDBRANCH   1  22
TORSDOF 1
ENDMDL
MODEL 5
REMARK VINA RESULT:      -6.3      2.976      4.908
REMARK  Name = 
REMARK  1 active torsions:
REMARK  status: ('A' for Active; 'I' for Inactive)
REMARK    1  A    between atoms: C_2  and  C_3
REMARK                            x       y       z     vdW  Elec       q    Type
REMARK                         _______ _______ _______ _____ _____    ______ ____
ROOT
ATOM      1  C   UNL     1     -10.087  14.049  66.453  0.00  0.00    +0.180 C 
ATOM      2  C   UNL     1     -10.381  12.660  66.874  0.00  0.00    +0.037 C 
ATOM      3  C   UNL     1     -10.710  13.046  68.435  0.00  0.00    +0.003 C 
ATOM      4  C   UNL     1     -11.621  11.619  68.666  0.00  0.00    +0.001 C 
ATOM      5  C   UNL     1     -10.220  10.768  69.082  0.00  0.00    +0.004 C 
ATOM      6  C   UNL     1      -9.879  10.417  67.541  0.00  0.00    +0.000 C 
ATOM      7  C   UNL     1     -11.135   9.331  69.283  0.00  0.00    +0.019 C 
ATOM      8  C   UNL     1     -11.485   9.730  70.812  0.00  0.00    -0.042 C 
ATOM      9  C   UNL     1     -11.230   8.858  71.746  0.00  0.00    +0.029 C 
ATOM     10  C   UNL     1      -9.775   8.711  71.982  0.00  0.00    +0.173 C 
ATOM     11  C   UNL     1      -9.071   9.181  70.739  0.00  0.00    +0.069 C 
ATOM     12  O   UNL     1      -9.315   7.711  72.610  0.00  0.00    -0.291 OA
ATOM     13  C   UNL     1     -12.553  10.756  70.838  0.00  0.00    +0.022 C 
ATOM     14  C   UNL     1      -9.780   8.458  69.643  0.00  0.00    +0.012 C 
ATOM     15  C   UNL     1     -11.926  11.998  70.211  0.00  0.00    +0.004 C 
ATOM     16  C   UNL     1     -12.020  13.898  67.926  0.00  0.00    +0.004 C 
ATOM     17  C   UNL     1     -11.657  12.211  66.258  0.00  0.00    +0.003 C 
ATOM     18  C   UNL     1      -9.284  11.689  66.935  0.00  0.00    +0.003 C 
ATOM     19  C   UNL     1     -11.214  14.872  67.073  0.00  0.00    +0.043 C 
ATOM     20  O   UNL     1     -10.240  14.198  65.066  0.00  0.00    -0.212 OA
ENDROOT
BRANCH   1  22
ATOM     21  C   UNL     1      -7.892  14.978  67.209  0.00  0.00    -0.012 C 
ATOM     22  C   UNL     1      -8.768  14.533  66.898  0.00  0.00    -0.049 C 
ENDBRANCH   1  22
TORSDOF 1
ENDMDL
MODEL 6
REMARK VINA RESULT:      -6.2      3.058      4.355
REMARK  Name = 
REMARK  1 active torsions:
REMARK  status: ('A' for Active; 'I' for Inactive)
REMARK    1  A    between atoms: C_2  and  C_3
REMARK                            x       y       z     vdW  Elec       q    Type
REMARK                         _______ _______ _______ _____ _____    ______ ____
ROOT
ATOM      1  C   UNL     1      -9.875  16.786  67.622  0.00  0.00    +0.180 C 
ATOM      2  C   UNL     1     -10.571  15.627  67.019  0.00  0.00    +0.037 C 
ATOM      3  C   UNL     1      -9.312  14.589  67.198  0.00  0.00    +0.003 C 
ATOM      4  C   UNL     1     -10.337  13.225  67.111  0.00  0.00    +0.001 C 
ATOM      5  C   UNL     1     -10.217  13.215  65.425  0.00  0.00    +0.004 C 
ATOM      6  C   UNL     1     -11.436  14.264  65.252  0.00  0.00    +0.000 C 
ATOM      7  C   UNL     1     -11.271  11.865  65.343  0.00  0.00    +0.019 C 
ATOM      8  C   UNL     1     -10.032  10.845  65.552  0.00  0.00    -0.042 C 
ATOM      9  C   UNL     1      -9.878   9.883  64.686  0.00  0.00    +0.029 C 
ATOM     10  C   UNL     1      -9.406  10.390  63.376  0.00  0.00    +0.173 C 
ATOM     11  C   UNL     1      -9.778  11.846  63.300  0.00  0.00    +0.069 C 
ATOM     12  O   UNL     1      -9.495   9.677  62.332  0.00  0.00    -0.291 OA
ATOM     13  C   UNL     1      -9.635  10.813  66.978  0.00  0.00    +0.022 C 
ATOM     14  C   UNL     1     -11.217  11.858  63.692  0.00  0.00    +0.012 C 
ATOM     15  C   UNL     1      -9.087  12.207  67.270  0.00  0.00    +0.004 C 
ATOM     16  C   UNL     1      -9.472  14.709  68.828  0.00  0.00    +0.004 C 
ATOM     17  C   UNL     1     -11.651  15.163  67.929  0.00  0.00    +0.003 C 
ATOM     18  C   UNL     1     -10.864  15.643  65.582  0.00  0.00    +0.003 C 
ATOM     19  C   UNL     1      -9.211  16.212  68.871  0.00  0.00    +0.043 C 
ATOM     20  O   UNL     1     -10.794  17.735  68.095  0.00  0.00    -0.212 OA
ENDROOT
BRANCH   1  22
ATOM     21  C   UNL     1      -8.128  17.872  66.199  0.00  0.00    -0.012 C 
ATOM     22  C   UNL     1      -8.881  17.407  66.729  0.00  0.00    -0.049 C 
ENDBRANCH   1  22
TORSDOF 1
ENDMDL
MODEL 7
REMARK VINA RESULT:      -6.2      1.802      6.247
REMARK  Name = 
REMARK  1 active torsions:
REMARK  status: ('A' for Active; 'I' for Inactive)
REMARK    1  A    between atoms: C_2  and  C_3
REMARK                            x       y       z     vdW  Elec       q    Type
REMARK                         _______ _______ _______ _____ _____    ______ ____
ROOT
ATOM      1  C   UNL     1     -11.139  12.036  66.124  0.00  0.00    +0.180 C 
ATOM      2  C   UNL     1     -10.575  13.168  66.894  0.00  0.00    +0.037 C 
ATOM      3  C   UNL     1     -10.617  14.232  65.645  0.00  0.00    +0.003 C 
ATOM      4  C   UNL     1     -10.593  15.576  66.701  0.00  0.00    +0.001 C 
ATOM      5  C   UNL     1      -8.902  15.547  66.732  0.00  0.00    +0.004 C 
ATOM      6  C   UNL     1      -8.863  14.473  67.940  0.00  0.00    +0.000 C 
ATOM      7  C   UNL     1      -8.885  16.876  67.815  0.00  0.00    +0.019 C 
ATOM      8  C   UNL     1      -8.959  17.923  66.582  0.00  0.00    -0.042 C 
ATOM      9  C   UNL     1      -8.062  18.866  66.525  0.00  0.00    +0.029 C 
ATOM     10  C   UNL     1      -6.727  18.336  66.163  0.00  0.00    +0.173 C 
ATOM     11  C   UNL     1      -6.717  16.872  66.510  0.00  0.00    +0.069 C 
ATOM     12  O   UNL     1      -5.679  19.022  66.359  0.00  0.00    -0.291 OA
ATOM     13  C   UNL     1     -10.343  17.996  66.061  0.00  0.00    +0.022 C 
ATOM     14  C   UNL     1      -7.236  16.844  67.909  0.00  0.00    +0.012 C 
ATOM     15  C   UNL     1     -10.616  16.619  65.462  0.00  0.00    +0.004 C 
ATOM     16  C   UNL     1     -12.257  14.148  65.657  0.00  0.00    +0.004 C 
ATOM     17  C   UNL     1     -11.568  13.635  67.898  0.00  0.00    +0.003 C 
ATOM     18  C   UNL     1      -9.171  13.113  67.314  0.00  0.00    +0.003 C 
ATOM     19  C   UNL     1     -12.310  12.652  65.362  0.00  0.00    +0.043 C 
ATOM     20  O   UNL     1     -11.714  11.083  66.978  0.00  0.00    -0.212 OA
ENDROOT
BRANCH   1  22
ATOM     21  C   UNL     1      -9.575  10.887  64.547  0.00  0.00    -0.012 C 
ATOM     22  C   UNL     1     -10.174  11.412  65.202  0.00  0.00    -0.049 C 
ENDBRANCH   1  22
TORSDOF 1
ENDMDL
MODEL 8
REMARK VINA RESULT:      -6.1      4.017      7.611
REMARK  Name = 
REMARK  1 active torsions:
REMARK  status: ('A' for Active; 'I' for Inactive)
REMARK    1  A    between atoms: C_2  and  C_3
REMARK                            x       y       z     vdW  Elec       q    Type
REMARK                         _______ _______ _______ _____ _____    ______ ____
ROOT
ATOM      1  C   UNL     1      -9.605   7.743  68.456  0.00  0.00    +0.180 C 
ATOM      2  C   UNL     1      -9.365   9.101  67.916  0.00  0.00    +0.037 C 
ATOM      3  C   UNL     1     -10.852   9.678  68.302  0.00  0.00    +0.003 C 
ATOM      4  C   UNL     1     -10.307  11.297  68.268  0.00  0.00    +0.001 C 
ATOM      5  C   UNL     1     -10.609  11.386  66.607  0.00  0.00    +0.004 C 
ATOM      6  C   UNL     1      -9.156  10.785  66.229  0.00  0.00    +0.000 C 
ATOM      7  C   UNL     1     -10.032  13.000  66.574  0.00  0.00    +0.019 C 
ATOM      8  C   UNL     1     -11.492  13.565  66.986  0.00  0.00    -0.042 C 
ATOM      9  C   UNL     1     -12.026  14.487  66.237  0.00  0.00    +0.029 C 
ATOM     10  C   UNL     1     -12.462  13.951  64.927  0.00  0.00    +0.173 C 
ATOM     11  C   UNL     1     -11.676  12.693  64.674  0.00  0.00    +0.069 C 
ATOM     12  O   UNL     1     -12.710  14.727  63.955  0.00  0.00    -0.291 OA
ATOM     13  C   UNL     1     -11.720  13.372  68.436  0.00  0.00    +0.022 C 
ATOM     14  C   UNL     1     -10.267  13.104  64.941  0.00  0.00    +0.012 C 
ATOM     15  C   UNL     1     -11.782  11.859  68.631  0.00  0.00    +0.004 C 
ATOM     16  C   UNL     1     -10.485   9.501  69.893  0.00  0.00    +0.004 C 
ATOM     17  C   UNL     1      -8.384   9.815  68.776  0.00  0.00    +0.003 C 
ATOM     18  C   UNL     1      -9.242   9.277  66.466  0.00  0.00    +0.003 C 
ATOM     19  C   UNL     1     -10.270   7.993  69.807  0.00  0.00    +0.043 C 
ATOM     20  O   UNL     1      -8.394   7.098  68.754  0.00  0.00    -0.212 OA
ENDROOT
BRANCH   1  22
ATOM     21  C   UNL     1     -10.989   6.230  67.025  0.00  0.00    -0.012 C 
ATOM     22  C   UNL     1     -10.455   6.906  67.591  0.00  0.00    -0.049 C 
ENDBRANCH   1  22
TORSDOF 1
ENDMDL
MODEL 9
REMARK VINA RESULT:      -6.1      1.462      6.318
REMARK  Name = 
REMARK  1 active torsions:
REMARK  status: ('A' for Active; 'I' for Inactive)
REMARK    1  A    between atoms: C_2  and  C_3
REMARK                            x       y       z     vdW  Elec       q    Type
REMARK                         _______ _______ _______ _____ _____    ______ ____
ROOT
ATOM      1  C   UNL     1     -11.304  11.903  68.473  0.00  0.00    +0.180 C 
ATOM      2  C   UNL     1     -11.020  13.024  67.547  0.00  0.00    +0.037 C 
ATOM      3  C   UNL     1      -9.723  13.581  68.385  0.00  0.00    +0.003 C 
ATOM      4  C   UNL     1      -9.098  14.384  67.013  0.00  0.00    +0.001 C 
ATOM      5  C   UNL     1     -10.023  15.754  67.367  0.00  0.00    +0.004 C 
ATOM      6  C   UNL     1     -11.311  15.189  66.570  0.00  0.00    +0.000 C 
ATOM      7  C   UNL     1      -9.415  16.543  65.971  0.00  0.00    +0.019 C 
ATOM      8  C   UNL     1      -8.120  17.065  66.792  0.00  0.00    -0.042 C 
ATOM      9  C   UNL     1      -7.851  18.339  66.765  0.00  0.00    +0.029 C 
ATOM     10  C   UNL     1      -8.827  19.126  67.554  0.00  0.00    +0.173 C 
ATOM     11  C   UNL     1     -10.081  18.302  67.666  0.00  0.00    +0.069 C 
ATOM     12  O   UNL     1      -8.928  20.381  67.402  0.00  0.00    -0.291 OA
ATOM     13  C   UNL     1      -7.141  15.965  66.948  0.00  0.00    +0.022 C 
ATOM     14  C   UNL     1     -10.345  17.879  66.259  0.00  0.00    +0.012 C 
ATOM     15  C   UNL     1      -7.830  14.945  67.851  0.00  0.00    +0.004 C 
ATOM     16  C   UNL     1      -8.926  12.188  68.035  0.00  0.00    +0.004 C 
ATOM     17  C   UNL     1     -10.510  12.490  66.257  0.00  0.00    +0.003 C 
ATOM     18  C   UNL     1     -11.958  14.149  67.485  0.00  0.00    +0.003 C 
ATOM     19  C   UNL     1      -9.934  11.284  68.739  0.00  0.00    +0.043 C 
ATOM     20  O   UNL     1     -12.046  10.898  67.833  0.00  0.00    -0.212 OA
ENDROOT
BRANCH   1  22
ATOM     21  C   UNL     1     -12.398  12.507  70.639  0.00  0.00    -0.012 C 
ATOM     22  C   UNL     1     -11.951  12.324  69.728  0.00  0.00    -0.049 C 
ENDBRANCH   1  22
TORSDOF 1
ENDMDL
