MODEL 1
REMARK VINA RESULT:      -4.6      0.000      0.000
REMARK  Name = 
REMARK  2 active torsions:
REMARK  status: ('A' for Active; 'I' for Inactive)
REMARK    1  A    between atoms: C_2  and  P_4
REMARK    2  A    between atoms: C_2  and  P_8
REMARK                            x       y       z     vdW  Elec       q    Type
REMARK                         _______ _______ _______ _____ _____    ______ ____
ROOT
ATOM      1  C   UNL     1      -5.281  20.951  69.164  0.00  0.00    +0.048 C 
ATOM      2  C   UNL     1      -5.235  20.338  70.534  0.00  0.00    +0.216 C 
ATOM      3  O   UNL     1      -6.452  20.532  71.157  0.00  0.00    -0.211 OA
ENDROOT
BRANCH   2   4
ATOM      4  P   UNL     1      -4.775  18.571  70.472  0.00  0.00    +0.151 P 
ATOM      5  O   UNL     1      -3.111  18.416  70.218  0.00  0.00    -0.355 OA
ATOM      6  O   UNL     1      -5.223  17.956  71.995  0.00  0.00    -0.355 OA
ATOM      7  O   UNL     1      -5.570  17.916  69.364  0.00  0.00    -0.457 OA
ENDBRANCH   2   4
BRANCH   2   8
ATOM      8  P   UNL     1      -3.934  21.072  71.580  0.00  0.00    +0.151 P 
ATOM      9  O   UNL     1      -4.547  22.453  72.349  0.00  0.00    -0.355 OA
ATOM     10  O   UNL     1      -2.747  21.599  70.477  0.00  0.00    -0.355 OA
ATOM     11  O   UNL     1      -3.373  20.080  72.552  0.00  0.00    -0.457 OA
ENDBRANCH   2   8
TORSDOF 2
ENDMDL
MODEL 2
REMARK VINA RESULT:      -4.5     10.551     11.552
REMARK  Name = 
REMARK  2 active torsions:
REMARK  status: ('A' for Active; 'I' for Inactive)
REMARK    1  A    between atoms: C_2  and  P_4
REMARK    2  A    between atoms: C_2  and  P_8
REMARK                            x       y       z     vdW  Elec       q    Type
REMARK                         _______ _______ _______ _____ _____    ______ ____
ROOT
ATOM      1  C   UNL     1     -11.019  12.154  63.426  0.00  0.00    +0.048 C 
ATOM      2  C   UNL     1     -11.698  12.519  64.714  0.00  0.00    +0.216 C 
ATOM      3  O   UNL     1     -13.041  12.211  64.621  0.00  0.00    -0.211 OA
ENDROOT
BRANCH   2   4
ATOM      4  P   UNL     1     -10.911  11.707  66.150  0.00  0.00    +0.151 P 
ATOM      5  O   UNL     1     -12.043  11.502  67.388  0.00  0.00    -0.355 OA
ATOM      6  O   UNL     1     -10.374  10.205  65.555  0.00  0.00    -0.355 OA
ATOM      7  O   UNL     1      -9.747  12.565  66.596  0.00  0.00    -0.457 OA
ENDBRANCH   2   4
BRANCH   2   8
ATOM      8  P   UNL     1     -11.545  14.294  65.101  0.00  0.00    +0.151 P 
ATOM      9  O   UNL     1     -12.100  14.574  66.679  0.00  0.00    -0.355 OA
ATOM     10  O   UNL     1     -12.641  15.057  64.042  0.00  0.00    -0.355 OA
ATOM     11  O   UNL     1     -10.148  14.793  64.891  0.00  0.00    -0.457 OA
ENDBRANCH   2   8
TORSDOF 2
ENDMDL
MODEL 3
REMARK VINA RESULT:      -4.4      0.249      1.999
REMARK  Name = 
REMARK  2 active torsions:
REMARK  status: ('A' for Active; 'I' for Inactive)
REMARK    1  A    between atoms: C_2  and  P_4
REMARK    2  A    between atoms: C_2  and  P_8
REMARK                            x       y       z     vdW  Elec       q    Type
REMARK                         _______ _______ _______ _____ _____    ______ ____
ROOT
ATOM      1  C   UNL     1      -5.308  20.948  69.029  0.00  0.00    +0.048 C 
ATOM      2  C   UNL     1      -5.152  20.348  70.396  0.00  0.00    +0.216 C 
ATOM      3  O   UNL     1      -6.334  20.502  71.095  0.00  0.00    -0.211 OA
ENDROOT
BRANCH   2   4
ATOM      4  P   UNL     1      -4.631  18.598  70.315  0.00  0.00    +0.151 P 
ATOM      5  O   UNL     1      -5.158  17.775  71.695  0.00  0.00    -0.355 OA
ATOM      6  O   UNL     1      -5.383  17.990  68.914  0.00  0.00    -0.355 OA
ATOM      7  O   UNL     1      -3.125  18.561  70.186  0.00  0.00    -0.457 OA
ENDBRANCH   2   4
BRANCH   2   8
ATOM      8  P   UNL     1      -3.816  21.138  71.352  0.00  0.00    +0.151 P 
ATOM      9  O   UNL     1      -3.355  20.115  72.623  0.00  0.00    -0.355 OA
ATOM     10  O   UNL     1      -4.547  22.509  72.053  0.00  0.00    -0.355 OA
ATOM     11  O   UNL     1      -2.659  21.524  70.482  0.00  0.00    -0.457 OA
ENDBRANCH   2   8
TORSDOF 2
ENDMDL
MODEL 4
REMARK VINA RESULT:      -4.4     10.090     11.558
REMARK  Name = 
REMARK  2 active torsions:
REMARK  status: ('A' for Active; 'I' for Inactive)
REMARK    1  A    between atoms: C_2  and  P_4
REMARK    2  A    between atoms: C_2  and  P_8
REMARK                            x       y       z     vdW  Elec       q    Type
REMARK                         _______ _______ _______ _____ _____    ______ ____
ROOT
ATOM      1  C   UNL     1     -11.837  14.423  66.956  0.00  0.00    +0.048 C 
ATOM      2  C   UNL     1     -11.098  13.529  66.003  0.00  0.00    +0.216 C 
ATOM      3  O   UNL     1      -9.908  14.132  65.647  0.00  0.00    -0.211 OA
ENDROOT
BRANCH   2   4
ATOM      4  P   UNL     1     -10.836  11.861  66.702  0.00  0.00    +0.151 P 
ATOM      5  O   UNL     1     -10.504  10.762  65.461  0.00  0.00    -0.355 OA
ATOM      6  O   UNL     1      -9.499  12.035  67.741  0.00  0.00    -0.355 OA
ATOM      7  O   UNL     1     -12.078  11.472  67.472  0.00  0.00    -0.457 OA
ENDBRANCH   2   4
BRANCH   2   8
ATOM      8  P   UNL     1     -12.048  13.200  64.481  0.00  0.00    +0.151 P 
ATOM      9  O   UNL     1     -11.013  12.556  63.303  0.00  0.00    -0.355 OA
ATOM     10  O   UNL     1     -12.528  14.743  63.938  0.00  0.00    -0.355 OA
ATOM     11  O   UNL     1     -13.234  12.322  64.742  0.00  0.00    -0.457 OA
ENDBRANCH   2   8
TORSDOF 2
ENDMDL
MODEL 5
REMARK VINA RESULT:      -4.4      8.422     10.046
REMARK  Name = 
REMARK  2 active torsions:
REMARK  status: ('A' for Active; 'I' for Inactive)
REMARK    1  A    between atoms: C_2  and  P_4
REMARK    2  A    between atoms: C_2  and  P_8
REMARK                            x       y       z     vdW  Elec       q    Type
REMARK                         _______ _______ _______ _____ _____    ______ ____
ROOT
ATOM      1  C   UNL     1      -9.261  13.469  66.629  0.00  0.00    +0.048 C 
ATOM      2  C   UNL     1     -10.335  14.068  65.768  0.00  0.00    +0.216 C 
ATOM      3  O   UNL     1     -10.143  13.668  64.460  0.00  0.00    -0.211 OA
ENDROOT
BRANCH   2   4
ATOM      4  P   UNL     1     -12.006  13.642  66.373  0.00  0.00    +0.151 P 
ATOM      5  O   UNL     1     -13.175  14.263  65.321  0.00  0.00    -0.355 OA
ATOM      6  O   UNL     1     -12.038  11.940  66.388  0.00  0.00    -0.355 OA
ATOM      7  O   UNL     1     -12.159  14.203  67.769  0.00  0.00    -0.457 OA
ENDBRANCH   2   4
BRANCH   2   8
ATOM      8  P   UNL     1     -10.325  15.891  65.814  0.00  0.00    +0.151 P 
ATOM      9  O   UNL     1     -11.093  16.490  64.426  0.00  0.00    -0.355 OA
ATOM     10  O   UNL     1      -8.678  16.311  65.697  0.00  0.00    -0.355 OA
ATOM     11  O   UNL     1     -10.933  16.421  67.077  0.00  0.00    -0.457 OA
ENDBRANCH   2   8
TORSDOF 2
ENDMDL
MODEL 6
REMARK VINA RESULT:      -4.3      9.975     11.407
REMARK  Name = 
REMARK  2 active torsions:
REMARK  status: ('A' for Active; 'I' for Inactive)
REMARK    1  A    between atoms: C_2  and  P_4
REMARK    2  A    between atoms: C_2  and  P_8
REMARK                            x       y       z     vdW  Elec       q    Type
REMARK                         _______ _______ _______ _____ _____    ______ ____
ROOT
ATOM      1  C   UNL     1      -9.930  14.533  65.928  0.00  0.00    +0.048 C 
ATOM      2  C   UNL     1     -11.175  13.711  66.092  0.00  0.00    +0.216 C 
ATOM      3  O   UNL     1     -12.028  14.350  66.971  0.00  0.00    -0.211 OA
ENDROOT
BRANCH   2   4
ATOM      4  P   UNL     1     -11.979  13.368  64.488  0.00  0.00    +0.151 P 
ATOM      5  O   UNL     1     -13.262  12.288  64.705  0.00  0.00    -0.355 OA
ATOM      6  O   UNL     1     -12.539  14.885  63.955  0.00  0.00    -0.355 OA
ATOM      7  O   UNL     1     -10.935  12.810  63.547  0.00  0.00    -0.457 OA
ENDBRANCH   2   4
BRANCH   2   8
ATOM      8  P   UNL     1     -10.825  12.045  66.749  0.00  0.00    +0.151 P 
ATOM      9  O   UNL     1     -12.147  11.516  67.668  0.00  0.00    -0.355 OA
ATOM     10  O   UNL     1      -9.525  12.277  67.827  0.00  0.00    -0.355 OA
ATOM     11  O   UNL     1     -10.464  11.081  65.661  0.00  0.00    -0.457 OA
ENDBRANCH   2   8
TORSDOF 2
ENDMDL
MODEL 7
REMARK VINA RESULT:      -4.3      9.640     11.118
REMARK  Name = 
REMARK  2 active torsions:
REMARK  status: ('A' for Active; 'I' for Inactive)
REMARK    1  A    between atoms: C_2  and  P_4
REMARK    2  A    between atoms: C_2  and  P_8
REMARK                            x       y       z     vdW  Elec       q    Type
REMARK                         _______ _______ _______ _____ _____    ______ ____
ROOT
ATOM      1  C   UNL     1     -10.012  15.461  65.547  0.00  0.00    +0.048 C 
ATOM      2  C   UNL     1     -10.708  14.151  65.314  0.00  0.00    +0.216 C 
ATOM      3  O   UNL     1      -9.924  13.362  64.494  0.00  0.00    -0.211 OA
ENDROOT
BRANCH   2   4
ATOM      4  P   UNL     1     -11.115  13.310  66.883  0.00  0.00    +0.151 P 
ATOM      5  O   UNL     1     -12.005  14.346  67.879  0.00  0.00    -0.355 OA
ATOM      6  O   UNL     1     -12.043  11.959  66.420  0.00  0.00    -0.355 OA
ATOM      7  O   UNL     1      -9.821  12.883  67.540  0.00  0.00    -0.457 OA
ENDBRANCH   2   4
BRANCH   2   8
ATOM      8  P   UNL     1     -12.335  14.361  64.517  0.00  0.00    +0.151 P 
ATOM      9  O   UNL     1     -12.468  13.277  63.221  0.00  0.00    -0.355 OA
ATOM     10  O   UNL     1     -12.284  15.931  63.854  0.00  0.00    -0.355 OA
ATOM     11  O   UNL     1     -13.459  14.221  65.497  0.00  0.00    -0.457 OA
ENDBRANCH   2   8
TORSDOF 2
ENDMDL
MODEL 8
REMARK VINA RESULT:      -4.2     10.433     11.760
REMARK  Name = 
REMARK  2 active torsions:
REMARK  status: ('A' for Active; 'I' for Inactive)
REMARK    1  A    between atoms: C_2  and  P_4
REMARK    2  A    between atoms: C_2  and  P_8
REMARK                            x       y       z     vdW  Elec       q    Type
REMARK                         _______ _______ _______ _____ _____    ______ ____
ROOT
ATOM      1  C   UNL     1     -12.485  11.952  63.770  0.00  0.00    +0.048 C 
ATOM      2  C   UNL     1     -11.308  12.598  64.441  0.00  0.00    +0.216 C 
ATOM      3  O   UNL     1     -10.223  12.558  63.588  0.00  0.00    -0.211 OA
ENDROOT
BRANCH   2   4
ATOM      4  P   UNL     1     -11.686  14.301  64.985  0.00  0.00    +0.151 P 
ATOM      5  O   UNL     1     -12.356  14.276  66.537  0.00  0.00    -0.355 OA
ATOM      6  O   UNL     1     -10.182  15.098  64.979  0.00  0.00    -0.355 OA
ATOM      7  O   UNL     1     -12.634  14.917  63.980  0.00  0.00    -0.457 OA
ENDBRANCH   2   4
BRANCH   2   8
ATOM      8  P   UNL     1     -10.845  11.757  65.992  0.00  0.00    +0.151 P 
ATOM      9  O   UNL     1      -9.566  12.595  66.724  0.00  0.00    -0.355 OA
ATOM     10  O   UNL     1     -10.234  10.246  65.491  0.00  0.00    -0.355 OA
ATOM     11  O   UNL     1     -12.018  11.592  66.909  0.00  0.00    -0.457 OA
ENDBRANCH   2   8
TORSDOF 2
ENDMDL
MODEL 9
REMARK VINA RESULT:      -4.2      8.187     10.266
REMARK  Name = 
REMARK  2 active torsions:
REMARK  status: ('A' for Active; 'I' for Inactive)
REMARK    1  A    between atoms: C_2  and  P_4
REMARK    2  A    between atoms: C_2  and  P_8
REMARK                            x       y       z     vdW  Elec       q    Type
REMARK                         _______ _______ _______ _____ _____    ______ ____
ROOT
ATOM      1  C   UNL     1      -9.939  13.799  67.724  0.00  0.00    +0.048 C 
ATOM      2  C   UNL     1     -10.939  14.546  66.890  0.00  0.00    +0.216 C 
ATOM      3  O   UNL     1     -12.032  14.865  67.672  0.00  0.00    -0.211 OA
ENDROOT
BRANCH   2   4
ATOM      4  P   UNL     1     -10.204  16.026  66.111  0.00  0.00    +0.151 P 
ATOM      5  O   UNL     1     -10.972  16.345  64.639  0.00  0.00    -0.355 OA
ATOM      6  O   UNL     1     -10.475  17.281  67.229  0.00  0.00    -0.355 OA
ATOM      7  O   UNL     1      -8.724  15.773  65.923  0.00  0.00    -0.457 OA
ENDBRANCH   2   4
BRANCH   2   8
ATOM      8  P   UNL     1     -11.523  13.569  65.465  0.00  0.00    +0.151 P 
ATOM      9  O   UNL     1     -12.954  14.254  64.865  0.00  0.00    -0.355 OA
ATOM     10  O   UNL     1     -11.933  12.053  66.127  0.00  0.00    -0.355 OA
ATOM     11  O   UNL     1     -10.468  13.435  64.410  0.00  0.00    -0.457 OA
ENDBRANCH   2   8
TORSDOF 2
ENDMDL
