MODEL 1
REMARK VINA RESULT:      -5.6      0.000      0.000
REMARK  Name = 
REMARK  11 active torsions:
REMARK  status: ('A' for Active; 'I' for Inactive)
REMARK    1  A    between atoms: C_5  and  C_6
REMARK    2  A    between atoms: N_8  and  C_9
REMARK    3  A    between atoms: C_9  and  C_22
REMARK    4  A    between atoms: C_10  and  C_11
REMARK    5  A    between atoms: C_11  and  C_12
REMARK    6  A    between atoms: C_12  and  C_13
REMARK    7  A    between atoms: C_13  and  C_14
REMARK    8  A    between atoms: C_14  and  S_15
REMARK    9  A    between atoms: S_15  and  C_16
REMARK   10  A    between atoms: C_16  and  C_17
REMARK   11  A    between atoms: C_17  and  C_19
REMARK                            x       y       z     vdW  Elec       q    Type
REMARK                         _______ _______ _______ _____ _____    ______ ____
ROOT
ATOM      1  C   UNK A   1     -10.048  16.843  67.686  0.00  0.00    +0.149 C 
ATOM      2  C   UNK A   1     -11.184  16.295  68.003  0.00  0.00    -0.003 C 
ENDROOT
BRANCH   1   4
ATOM      3  C   UNK A   0      -8.975  18.891  68.084  0.00  0.00    +0.245 C 
ATOM      4  N   UNK A   1      -9.231  17.573  68.604  0.00  0.00    -0.173 NA
ATOM      5  O   UNK A   0      -9.983  19.629  68.276  0.00  0.00    -0.273 OA
BRANCH   3   8
ATOM      6  C   UNK A   0      -6.342  20.575  67.583  0.00  0.00    +0.000 C 
ATOM      7  C   UNK A   0      -6.885  20.084  67.423  0.00  0.00    +0.009 C 
ATOM      8  C   UNK A   0      -7.630  19.543  68.823  0.00  0.00    +0.079 C 
ATOM      9  C   UNK A   0      -6.549  18.548  68.007  0.00  0.00    +0.010 C 
ATOM     10  C   UNK A   0      -7.591  19.982  66.177  0.00  0.00    +0.000 C 
ENDBRANCH   3   8
ENDBRANCH   1   4
BRANCH   1  11
ATOM     11  C   UNK A   1      -9.612  16.774  66.289  0.00  0.00    +0.402 C 
ATOM     12  O   UNK A   1      -8.658  15.795  65.991  0.00  0.00    -0.239 OA
ATOM     13  O   UNK A   1     -10.441  17.103  65.398  0.00  0.00    -0.239 OA
ENDBRANCH   1  11
BRANCH   2  14
ATOM     14  C   UNK A   1     -11.473  16.010  69.432  0.00  0.00    +0.028 C 
BRANCH  14  15
ATOM     15  C   UNK A   1     -10.986  14.576  69.636  0.00  0.00    +0.006 C 
BRANCH  15  16
ATOM     16  C   UNK A   1     -12.069  13.642  69.112  0.00  0.00    +0.012 C 
BRANCH  16  17
ATOM     17  C   UNK A   1     -11.495  12.339  68.606  0.00  0.00    +0.058 C 
BRANCH  17  18
ATOM     18  S   UNK A   1     -10.801  12.673  66.957  0.00  0.00    -0.138 S 
BRANCH  18  19
ATOM     19  C   UNK A   1     -12.125  13.152  65.842  0.00  0.00    +0.088 C 
BRANCH  19  20
ATOM     20  C   UNK A   1     -11.327  13.715  64.496  0.00  0.00    +0.205 C 
ATOM     21  N   UNK A   1     -12.547  14.663  64.104  0.00  0.00    -0.120 NA
BRANCH  20  22
ATOM     22  C   UNK A   1     -11.863  12.494  63.563  0.00  0.00    +0.383 C 
ATOM     23  O   UNK A   1     -10.919  11.475  63.419  0.00  0.00    -0.244 OA
ATOM     24  O   UNK A   1     -13.067  12.231  63.635  0.00  0.00    -0.244 OA
ENDBRANCH  20  22
ENDBRANCH  19  20
ENDBRANCH  18  19
ENDBRANCH  17  18
ENDBRANCH  16  17
ENDBRANCH  15  16
ENDBRANCH  14  15
ENDBRANCH   2  14
TORSDOF 11
ENDMDL
MODEL 2
REMARK VINA RESULT:      -5.6      3.480      7.241
REMARK  Name = 
REMARK  11 active torsions:
REMARK  status: ('A' for Active; 'I' for Inactive)
REMARK    1  A    between atoms: C_5  and  C_6
REMARK    2  A    between atoms: N_8  and  C_9
REMARK    3  A    between atoms: C_9  and  C_22
REMARK    4  A    between atoms: C_10  and  C_11
REMARK    5  A    between atoms: C_11  and  C_12
REMARK    6  A    between atoms: C_12  and  C_13
REMARK    7  A    between atoms: C_13  and  C_14
REMARK    8  A    between atoms: C_14  and  S_15
REMARK    9  A    between atoms: S_15  and  C_16
REMARK   10  A    between atoms: C_16  and  C_17
REMARK   11  A    between atoms: C_17  and  C_19
REMARK                            x       y       z     vdW  Elec       q    Type
REMARK                         _______ _______ _______ _____ _____    ______ ____
ROOT
ATOM      1  C   UNK A   1     -10.851  13.851  65.036  0.00  0.00    +0.149 C 
ATOM      2  C   UNK A   1     -10.163  14.933  65.255  0.00  0.00    -0.003 C 
ENDROOT
BRANCH   1   4
ATOM      3  C   UNK A   0     -10.933  12.115  66.612  0.00  0.00    +0.245 C 
ATOM      4  N   UNK A   1     -10.388  12.535  65.347  0.00  0.00    -0.173 NA
ATOM      5  O   UNK A   0     -12.130  11.741  66.458  0.00  0.00    -0.273 OA
BRANCH   3   8
ATOM      6  C   UNK A   0     -10.260  10.521  69.262  0.00  0.00    +0.000 C 
ATOM      7  C   UNK A   0     -10.441  11.116  68.845  0.00  0.00    +0.009 C 
ATOM      8  C   UNK A   0     -10.014  10.875  67.244  0.00  0.00    +0.079 C 
ATOM      9  C   UNK A   0      -9.093  11.890  68.216  0.00  0.00    +0.010 C 
ATOM     10  C   UNK A   0     -11.452  12.087  69.156  0.00  0.00    +0.000 C 
ENDBRANCH   3   8
ENDBRANCH   1   4
BRANCH   1  11
ATOM     11  C   UNK A   1     -12.146  13.979  64.363  0.00  0.00    +0.402 C 
ATOM     12  O   UNK A   1     -12.386  13.085  63.315  0.00  0.00    -0.239 OA
ATOM     13  O   UNK A   1     -13.125  14.387  65.047  0.00  0.00    -0.239 OA
ENDBRANCH   1  11
BRANCH   2  14
ATOM     14  C   UNK A   1      -9.059  14.896  66.249  0.00  0.00    +0.028 C 
BRANCH  14  15
ATOM     15  C   UNK A   1      -9.345  16.080  67.172  0.00  0.00    +0.006 C 
BRANCH  15  16
ATOM     16  C   UNK A   1     -10.574  15.733  68.002  0.00  0.00    +0.012 C 
BRANCH  16  17
ATOM     17  C   UNK A   1     -10.242  15.579  69.468  0.00  0.00    +0.058 C 
BRANCH  17  18
ATOM     18  S   UNK A   1     -11.771  15.921  70.393  0.00  0.00    -0.138 S 
BRANCH  18  19
ATOM     19  C   UNK A   1     -11.689  15.112  71.995  0.00  0.00    +0.088 C 
BRANCH  19  20
ATOM     20  C   UNK A   1     -12.699  16.022  72.952  0.00  0.00    +0.205 C 
ATOM     21  N   UNK A   1     -12.287  15.203  74.256  0.00  0.00    -0.120 NA
BRANCH  20  22
ATOM     22  C   UNK A   1     -13.982  15.067  72.652  0.00  0.00    +0.383 C 
ATOM     23  O   UNK A   1     -14.852  15.619  71.710  0.00  0.00    -0.244 OA
ATOM     24  O   UNK A   1     -13.786  13.849  72.690  0.00  0.00    -0.244 OA
ENDBRANCH  20  22
ENDBRANCH  19  20
ENDBRANCH  18  19
ENDBRANCH  17  18
ENDBRANCH  16  17
ENDBRANCH  15  16
ENDBRANCH  14  15
ENDBRANCH   2  14
TORSDOF 11
ENDMDL
MODEL 3
REMARK VINA RESULT:      -5.6      3.200      6.782
REMARK  Name = 
REMARK  11 active torsions:
REMARK  status: ('A' for Active; 'I' for Inactive)
REMARK    1  A    between atoms: C_5  and  C_6
REMARK    2  A    between atoms: N_8  and  C_9
REMARK    3  A    between atoms: C_9  and  C_22
REMARK    4  A    between atoms: C_10  and  C_11
REMARK    5  A    between atoms: C_11  and  C_12
REMARK    6  A    between atoms: C_12  and  C_13
REMARK    7  A    between atoms: C_13  and  C_14
REMARK    8  A    between atoms: C_14  and  S_15
REMARK    9  A    between atoms: S_15  and  C_16
REMARK   10  A    between atoms: C_16  and  C_17
REMARK   11  A    between atoms: C_17  and  C_19
REMARK                            x       y       z     vdW  Elec       q    Type
REMARK                         _______ _______ _______ _____ _____    ______ ____
ROOT
ATOM      1  C   UNK A   1      -9.914  15.059  67.466  0.00  0.00    +0.149 C 
ATOM      2  C   UNK A   1     -10.058  14.378  68.565  0.00  0.00    -0.003 C 
ENDROOT
BRANCH   1   4
ATOM      3  C   UNK A   0     -10.627  14.223  65.393  0.00  0.00    +0.245 C 
ATOM      4  N   UNK A   1      -9.484  14.492  66.227  0.00  0.00    -0.173 NA
ATOM      5  O   UNK A   0     -11.023  15.295  64.853  0.00  0.00    -0.273 OA
BRANCH   3   8
ATOM      6  C   UNK A   0     -11.761  11.852  63.630  0.00  0.00    +0.000 C 
ATOM      7  C   UNK A   0     -11.694  12.286  64.237  0.00  0.00    +0.009 C 
ATOM      8  C   UNK A   0     -10.229  13.099  64.228  0.00  0.00    +0.079 C 
ATOM      9  C   UNK A   0     -10.454  11.782  65.248  0.00  0.00    +0.010 C 
ATOM     10  C   UNK A   0     -12.774  12.810  65.024  0.00  0.00    +0.000 C 
ENDBRANCH   3   8
ENDBRANCH   1   4
BRANCH   1  11
ATOM     11  C   UNK A   1     -10.135  16.507  67.515  0.00  0.00    +0.402 C 
ATOM     12  O   UNK A   1     -11.184  16.942  68.331  0.00  0.00    -0.239 OA
ATOM     13  O   UNK A   1      -9.134  17.259  67.362  0.00  0.00    -0.239 OA
ENDBRANCH   1  11
BRANCH   2  14
ATOM     14  C   UNK A   1     -10.220  12.904  68.483  0.00  0.00    +0.028 C 
BRANCH  14  15
ATOM     15  C   UNK A   1     -11.698  12.671  68.792  0.00  0.00    +0.006 C 
BRANCH  15  16
ATOM     16  C   UNK A   1     -11.798  11.419  69.654  0.00  0.00    +0.012 C 
BRANCH  16  17
ATOM     17  C   UNK A   1     -12.533  11.681  70.948  0.00  0.00    +0.058 C 
BRANCH  17  18
ATOM     18  S   UNK A   1     -12.794  13.479  71.051  0.00  0.00    -0.138 S 
BRANCH  18  19
ATOM     19  C   UNK A   1     -13.606  13.873  72.604  0.00  0.00    +0.088 C 
BRANCH  19  20
ATOM     20  C   UNK A   1     -14.008  15.478  72.446  0.00  0.00    +0.205 C 
ATOM     21  N   UNK A   1     -13.266  15.580  71.039  0.00  0.00    -0.120 NA
BRANCH  20  22
ATOM     22  C   UNK A   1     -12.696  15.976  73.272  0.00  0.00    +0.383 C 
ATOM     23  O   UNK A   1     -12.318  15.075  74.270  0.00  0.00    -0.244 OA
ATOM     24  O   UNK A   1     -11.845  16.600  72.632  0.00  0.00    -0.244 OA
ENDBRANCH  20  22
ENDBRANCH  19  20
ENDBRANCH  18  19
ENDBRANCH  17  18
ENDBRANCH  16  17
ENDBRANCH  15  16
ENDBRANCH  14  15
ENDBRANCH   2  14
TORSDOF 11
ENDMDL
MODEL 4
REMARK VINA RESULT:      -5.5      3.743      8.691
REMARK  Name = 
REMARK  11 active torsions:
REMARK  status: ('A' for Active; 'I' for Inactive)
REMARK    1  A    between atoms: C_5  and  C_6
REMARK    2  A    between atoms: N_8  and  C_9
REMARK    3  A    between atoms: C_9  and  C_22
REMARK    4  A    between atoms: C_10  and  C_11
REMARK    5  A    between atoms: C_11  and  C_12
REMARK    6  A    between atoms: C_12  and  C_13
REMARK    7  A    between atoms: C_13  and  C_14
REMARK    8  A    between atoms: C_14  and  S_15
REMARK    9  A    between atoms: S_15  and  C_16
REMARK   10  A    between atoms: C_16  and  C_17
REMARK   11  A    between atoms: C_17  and  C_19
REMARK                            x       y       z     vdW  Elec       q    Type
REMARK                         _______ _______ _______ _____ _____    ______ ____
ROOT
ATOM      1  C   UNK A   1     -10.212  16.918  67.552  0.00  0.00    +0.149 C 
ATOM      2  C   UNK A   1     -10.386  18.199  67.407  0.00  0.00    -0.003 C 
ENDROOT
BRANCH   1   4
ATOM      3  C   UNK A   0     -10.679  15.533  65.716  0.00  0.00    +0.245 C 
ATOM      4  N   UNK A   1      -9.638  16.073  66.553  0.00  0.00    -0.173 NA
ATOM      5  O   UNK A   0     -11.046  16.404  64.878  0.00  0.00    -0.273 OA
BRANCH   3   8
ATOM      6  C   UNK A   0     -11.526  12.675  64.654  0.00  0.00    +0.000 C 
ATOM      7  C   UNK A   0     -11.527  13.265  65.115  0.00  0.00    +0.009 C 
ATOM      8  C   UNK A   0     -10.129  14.169  64.932  0.00  0.00    +0.079 C 
ATOM      9  C   UNK A   0     -10.317  13.174  66.274  0.00  0.00    +0.010 C 
ATOM     10  C   UNK A   0     -12.689  13.891  65.681  0.00  0.00    +0.000 C 
ENDBRANCH   3   8
ENDBRANCH   1   4
BRANCH   1  11
ATOM     11  C   UNK A   1     -10.698  16.288  68.782  0.00  0.00    +0.402 C 
ATOM     12  O   UNK A   1     -12.086  16.258  68.951  0.00  0.00    -0.239 OA
ATOM     13  O   UNK A   1     -10.007  15.356  69.278  0.00  0.00    -0.239 OA
ENDBRANCH   1  11
BRANCH   2  14
ATOM     14  C   UNK A   1      -9.588  18.923  66.384  0.00  0.00    +0.028 C 
BRANCH  14  15
ATOM     15  C   UNK A   1      -8.796  19.955  67.186  0.00  0.00    +0.006 C 
BRANCH  15  16
ATOM     16  C   UNK A   1      -7.370  19.961  66.650  0.00  0.00    +0.012 C 
BRANCH  16  17
ATOM     17  C   UNK A   1      -6.526  21.032  67.300  0.00  0.00    +0.058 C 
BRANCH  17  18
ATOM     18  S   UNK A   1      -5.194  20.179  68.200  0.00  0.00    -0.138 S 
BRANCH  18  19
ATOM     19  C   UNK A   1      -4.819  21.086  69.704  0.00  0.00    +0.088 C 
BRANCH  19  20
ATOM     20  C   UNK A   1      -4.789  19.911  70.880  0.00  0.00    +0.205 C 
ATOM     21  N   UNK A   1      -6.104  20.492  71.568  0.00  0.00    -0.120 NA
BRANCH  20  22
ATOM     22  C   UNK A   1      -3.800  20.777  71.840  0.00  0.00    +0.383 C 
ATOM     23  O   UNK A   1      -4.343  22.016  72.188  0.00  0.00    -0.244 OA
ATOM     24  O   UNK A   1      -3.115  20.141  72.645  0.00  0.00    -0.244 OA
ENDBRANCH  20  22
ENDBRANCH  19  20
ENDBRANCH  18  19
ENDBRANCH  17  18
ENDBRANCH  16  17
ENDBRANCH  15  16
ENDBRANCH  14  15
ENDBRANCH   2  14
TORSDOF 11
ENDMDL
MODEL 5
REMARK VINA RESULT:      -5.4      3.165      5.827
REMARK  Name = 
REMARK  11 active torsions:
REMARK  status: ('A' for Active; 'I' for Inactive)
REMARK    1  A    between atoms: C_5  and  C_6
REMARK    2  A    between atoms: N_8  and  C_9
REMARK    3  A    between atoms: C_9  and  C_22
REMARK    4  A    between atoms: C_10  and  C_11
REMARK    5  A    between atoms: C_11  and  C_12
REMARK    6  A    between atoms: C_12  and  C_13
REMARK    7  A    between atoms: C_13  and  C_14
REMARK    8  A    between atoms: C_14  and  S_15
REMARK    9  A    between atoms: S_15  and  C_16
REMARK   10  A    between atoms: C_16  and  C_17
REMARK   11  A    between atoms: C_17  and  C_19
REMARK                            x       y       z     vdW  Elec       q    Type
REMARK                         _______ _______ _______ _____ _____    ______ ____
ROOT
ATOM      1  C   UNK A   1     -11.733  13.712  65.625  0.00  0.00    +0.149 C 
ATOM      2  C   UNK A   1     -11.536  12.497  66.047  0.00  0.00    -0.003 C 
ENDROOT
BRANCH   1   4
ATOM      3  C   UNK A   0     -10.285  15.345  66.486  0.00  0.00    +0.245 C 
ATOM      4  N   UNK A   1     -11.644  14.869  66.458  0.00  0.00    -0.173 NA
ATOM      5  O   UNK A   0     -10.038  15.992  65.429  0.00  0.00    -0.273 OA
BRANCH   3   8
ATOM      6  C   UNK A   0      -8.133  16.296  68.603  0.00  0.00    +0.000 C 
ATOM      7  C   UNK A   0      -8.472  15.821  68.133  0.00  0.00    +0.009 C 
ATOM      8  C   UNK A   0     -10.045  16.308  67.825  0.00  0.00    +0.079 C 
ATOM      9  C   UNK A   0      -9.752  15.012  68.855  0.00  0.00    +0.010 C 
ATOM     10  C   UNK A   0      -7.819  14.950  67.197  0.00  0.00    +0.000 C 
ENDBRANCH   3   8
ENDBRANCH   1   4
BRANCH   1  11
ATOM     11  C   UNK A   1     -12.144  13.903  64.232  0.00  0.00    +0.402 C 
ATOM     12  O   UNK A   1     -12.555  12.755  63.549  0.00  0.00    -0.239 OA
ATOM     13  O   UNK A   1     -12.658  15.011  63.918  0.00  0.00    -0.239 OA
ENDBRANCH   1  11
BRANCH   2  14
ATOM     14  C   UNK A   1     -10.767  12.285  67.300  0.00  0.00    +0.028 C 
BRANCH  14  15
ATOM     15  C   UNK A   1     -11.660  11.374  68.140  0.00  0.00    +0.006 C 
BRANCH  15  16
ATOM     16  C   UNK A   1     -11.671  11.921  69.562  0.00  0.00    +0.012 C 
BRANCH  16  17
ATOM     17  C   UNK A   1     -12.310  10.958  70.534  0.00  0.00    +0.058 C 
BRANCH  17  18
ATOM     18  S   UNK A   1     -13.093  11.962  71.834  0.00  0.00    -0.138 S 
BRANCH  18  19
ATOM     19  C   UNK A   1     -12.845  13.703  71.469  0.00  0.00    +0.088 C 
BRANCH  19  20
ATOM     20  C   UNK A   1     -13.836  14.482  72.553  0.00  0.00    +0.205 C 
ATOM     21  N   UNK A   1     -14.276  15.555  71.460  0.00  0.00    -0.120 NA
BRANCH  20  22
ATOM     22  C   UNK A   1     -12.629  15.419  73.114  0.00  0.00    +0.383 C 
ATOM     23  O   UNK A   1     -11.722  15.778  72.114  0.00  0.00    -0.244 OA
ATOM     24  O   UNK A   1     -12.917  16.210  74.016  0.00  0.00    -0.244 OA
ENDBRANCH  20  22
ENDBRANCH  19  20
ENDBRANCH  18  19
ENDBRANCH  17  18
ENDBRANCH  16  17
ENDBRANCH  15  16
ENDBRANCH  14  15
ENDBRANCH   2  14
TORSDOF 11
ENDMDL
MODEL 6
REMARK VINA RESULT:      -5.4      3.722      8.693
REMARK  Name = 
REMARK  11 active torsions:
REMARK  status: ('A' for Active; 'I' for Inactive)
REMARK    1  A    between atoms: C_5  and  C_6
REMARK    2  A    between atoms: N_8  and  C_9
REMARK    3  A    between atoms: C_9  and  C_22
REMARK    4  A    between atoms: C_10  and  C_11
REMARK    5  A    between atoms: C_11  and  C_12
REMARK    6  A    between atoms: C_12  and  C_13
REMARK    7  A    between atoms: C_13  and  C_14
REMARK    8  A    between atoms: C_14  and  S_15
REMARK    9  A    between atoms: S_15  and  C_16
REMARK   10  A    between atoms: C_16  and  C_17
REMARK   11  A    between atoms: C_17  and  C_19
REMARK                            x       y       z     vdW  Elec       q    Type
REMARK                         _______ _______ _______ _____ _____    ______ ____
ROOT
ATOM      1  C   UNK A   1      -9.208  17.559  66.590  0.00  0.00    +0.149 C 
ATOM      2  C   UNK A   1      -8.432  18.599  66.503  0.00  0.00    -0.003 C 
ENDROOT
BRANCH   1   4
ATOM      3  C   UNK A   0     -10.420  15.906  65.447  0.00  0.00    +0.245 C 
ATOM      4  N   UNK A   1      -9.105  16.414  65.740  0.00  0.00    -0.173 NA
ATOM      5  O   UNK A   0     -10.962  16.616  64.553  0.00  0.00    -0.273 OA
BRANCH   3   8
ATOM      6  C   UNK A   0     -11.578  12.997  65.907  0.00  0.00    +0.000 C 
ATOM      7  C   UNK A   0     -11.358  13.687  66.097  0.00  0.00    +0.009 C 
ATOM      8  C   UNK A   0     -10.318  14.319  64.945  0.00  0.00    +0.079 C 
ATOM      9  C   UNK A   0      -9.712  13.767  66.412  0.00  0.00    +0.010 C 
ATOM     10  C   UNK A   0     -12.059  14.587  66.969  0.00  0.00    +0.000 C 
ENDBRANCH   3   8
ENDBRANCH   1   4
BRANCH   1  11
ATOM     11  C   UNK A   1     -10.299  17.588  67.567  0.00  0.00    +0.402 C 
ATOM     12  O   UNK A   1     -10.067  16.910  68.767  0.00  0.00    -0.239 OA
ATOM     13  O   UNK A   1     -11.050  18.601  67.579  0.00  0.00    -0.239 OA
ENDBRANCH   1  11
BRANCH   2  14
ATOM     14  C   UNK A   1      -7.119  18.465  65.822  0.00  0.00    +0.028 C 
BRANCH  14  15
ATOM     15  C   UNK A   1      -6.590  19.896  65.740  0.00  0.00    +0.006 C 
BRANCH  15  16
ATOM     16  C   UNK A   1      -5.086  19.819  65.508  0.00  0.00    +0.012 C 
BRANCH  16  17
ATOM     17  C   UNK A   1      -4.303  20.214  66.738  0.00  0.00    +0.058 C 
BRANCH  17  18
ATOM     18  S   UNK A   1      -5.472  21.032  67.867  0.00  0.00    -0.138 S 
BRANCH  18  19
ATOM     19  C   UNK A   1      -5.385  20.249  69.481  0.00  0.00    +0.088 C 
BRANCH  19  20
ATOM     20  C   UNK A   1      -3.828  20.546  69.983  0.00  0.00    +0.205 C 
ATOM     21  N   UNK A   1      -3.634  19.034  70.448  0.00  0.00    -0.120 NA
BRANCH  20  22
ATOM     22  C   UNK A   1      -4.306  21.029  71.462  0.00  0.00    +0.383 C 
ATOM     23  O   UNK A   1      -3.712  20.288  72.486  0.00  0.00    -0.244 OA
ATOM     24  O   UNK A   1      -4.528  22.235  71.604  0.00  0.00    -0.244 OA
ENDBRANCH  20  22
ENDBRANCH  19  20
ENDBRANCH  18  19
ENDBRANCH  17  18
ENDBRANCH  16  17
ENDBRANCH  15  16
ENDBRANCH  14  15
ENDBRANCH   2  14
TORSDOF 11
ENDMDL
MODEL 7
REMARK VINA RESULT:      -5.3      1.776      2.549
REMARK  Name = 
REMARK  11 active torsions:
REMARK  status: ('A' for Active; 'I' for Inactive)
REMARK    1  A    between atoms: C_5  and  C_6
REMARK    2  A    between atoms: N_8  and  C_9
REMARK    3  A    between atoms: C_9  and  C_22
REMARK    4  A    between atoms: C_10  and  C_11
REMARK    5  A    between atoms: C_11  and  C_12
REMARK    6  A    between atoms: C_12  and  C_13
REMARK    7  A    between atoms: C_13  and  C_14
REMARK    8  A    between atoms: C_14  and  S_15
REMARK    9  A    between atoms: S_15  and  C_16
REMARK   10  A    between atoms: C_16  and  C_17
REMARK   11  A    between atoms: C_17  and  C_19
REMARK                            x       y       z     vdW  Elec       q    Type
REMARK                         _______ _______ _______ _____ _____    ______ ____
ROOT
ATOM      1  C   UNK A   1      -9.886  18.118  67.539  0.00  0.00    +0.149 C 
ATOM      2  C   UNK A   1     -10.551  17.497  68.469  0.00  0.00    -0.003 C 
ENDROOT
BRANCH   1   4
ATOM      3  C   UNK A   0      -7.569  18.490  67.549  0.00  0.00    +0.245 C 
ATOM      4  N   UNK A   1      -8.630  17.670  67.023  0.00  0.00    -0.173 NA
ATOM      5  O   UNK A   0      -7.298  18.130  68.730  0.00  0.00    -0.273 OA
BRANCH   3   8
ATOM      6  C   UNK A   0      -5.130  20.099  66.334  0.00  0.00    +0.000 C 
ATOM      7  C   UNK A   0      -5.831  19.992  66.577  0.00  0.00    +0.009 C 
ATOM      8  C   UNK A   0      -6.218  18.362  66.580  0.00  0.00    +0.079 C 
ATOM      9  C   UNK A   0      -6.832  19.370  65.383  0.00  0.00    +0.010 C 
ATOM     10  C   UNK A   0      -6.578  20.885  67.416  0.00  0.00    +0.000 C 
ENDBRANCH   3   8
ENDBRANCH   1   4
BRANCH   1  11
ATOM     11  C   UNK A   1     -10.416  19.389  67.040  0.00  0.00    +0.402 C 
ATOM     12  O   UNK A   1     -10.215  20.503  67.861  0.00  0.00    -0.239 OA
ATOM     13  O   UNK A   1     -10.459  19.557  65.791  0.00  0.00    -0.239 OA
ENDBRANCH   1  11
BRANCH   2  14
ATOM     14  C   UNK A   1     -10.268  16.061  68.721  0.00  0.00    +0.028 C 
BRANCH  14  15
ATOM     15  C   UNK A   1     -11.635  15.385  68.620  0.00  0.00    +0.006 C 
BRANCH  15  16
ATOM     16  C   UNK A   1     -11.456  13.923  69.010  0.00  0.00    +0.012 C 
BRANCH  16  17
ATOM     17  C   UNK A   1     -10.483  13.209  68.101  0.00  0.00    +0.058 C 
BRANCH  17  18
ATOM     18  S   UNK A   1     -11.474  12.345  66.843  0.00  0.00    -0.138 S 
BRANCH  18  19
ATOM     19  C   UNK A   1     -11.121  13.043  65.227  0.00  0.00    +0.088 C 
BRANCH  19  20
ATOM     20  C   UNK A   1     -12.148  14.347  65.125  0.00  0.00    +0.205 C 
ATOM     21  N   UNK A   1     -12.525  13.999  63.616  0.00  0.00    -0.120 NA
BRANCH  20  22
ATOM     22  C   UNK A   1     -10.954  15.361  64.683  0.00  0.00    +0.383 C 
ATOM     23  O   UNK A   1     -11.432  16.617  64.302  0.00  0.00    -0.244 OA
ATOM     24  O   UNK A   1      -9.884  15.252  65.288  0.00  0.00    -0.244 OA
ENDBRANCH  20  22
ENDBRANCH  19  20
ENDBRANCH  18  19
ENDBRANCH  17  18
ENDBRANCH  16  17
ENDBRANCH  15  16
ENDBRANCH  14  15
ENDBRANCH   2  14
TORSDOF 11
ENDMDL
MODEL 8
REMARK VINA RESULT:      -5.3      3.499      5.577
REMARK  Name = 
REMARK  11 active torsions:
REMARK  status: ('A' for Active; 'I' for Inactive)
REMARK    1  A    between atoms: C_5  and  C_6
REMARK    2  A    between atoms: N_8  and  C_9
REMARK    3  A    between atoms: C_9  and  C_22
REMARK    4  A    between atoms: C_10  and  C_11
REMARK    5  A    between atoms: C_11  and  C_12
REMARK    6  A    between atoms: C_12  and  C_13
REMARK    7  A    between atoms: C_13  and  C_14
REMARK    8  A    between atoms: C_14  and  S_15
REMARK    9  A    between atoms: S_15  and  C_16
REMARK   10  A    between atoms: C_16  and  C_17
REMARK   11  A    between atoms: C_17  and  C_19
REMARK                            x       y       z     vdW  Elec       q    Type
REMARK                         _______ _______ _______ _____ _____    ______ ____
ROOT
ATOM      1  C   UNK A   1      -8.246  15.147  66.866  0.00  0.00    +0.149 C 
ATOM      2  C   UNK A   1      -9.310  14.423  66.682  0.00  0.00    -0.003 C 
ENDROOT
BRANCH   1   4
ATOM      3  C   UNK A   0      -8.324  17.468  67.198  0.00  0.00    +0.245 C 
ATOM      4  N   UNK A   1      -8.033  16.421  66.254  0.00  0.00    -0.173 NA
ATOM      5  O   UNK A   0      -7.354  17.604  67.997  0.00  0.00    -0.273 OA
BRANCH   3   8
ATOM      6  C   UNK A   0      -9.788  20.267  67.396  0.00  0.00    +0.000 C 
ATOM      7  C   UNK A   0      -9.691  19.532  67.507  0.00  0.00    +0.009 C 
ATOM      8  C   UNK A   0      -8.615  18.898  66.391  0.00  0.00    +0.079 C 
ATOM      9  C   UNK A   0     -10.263  18.611  66.228  0.00  0.00    +0.010 C 
ATOM     10  C   UNK A   0      -9.907  18.830  68.741  0.00  0.00    +0.000 C 
ENDBRANCH   3   8
ENDBRANCH   1   4
BRANCH   1  11
ATOM     11  C   UNK A   1      -7.167  14.596  67.690  0.00  0.00    +0.402 C 
ATOM     12  O   UNK A   1      -5.866  14.817  67.227  0.00  0.00    -0.239 OA
ATOM     13  O   UNK A   1      -7.362  14.511  68.933  0.00  0.00    -0.239 OA
ENDBRANCH   1  11
BRANCH   2  14
ATOM     14  C   UNK A   1     -10.551  15.076  66.193  0.00  0.00    +0.028 C 
BRANCH  14  15
ATOM     15  C   UNK A   1     -11.441  15.170  67.432  0.00  0.00    +0.006 C 
BRANCH  15  16
ATOM     16  C   UNK A   1     -11.822  13.750  67.835  0.00  0.00    +0.012 C 
BRANCH  16  17
ATOM     17  C   UNK A   1     -11.771  13.554  69.332  0.00  0.00    +0.058 C 
BRANCH  17  18
ATOM     18  S   UNK A   1     -11.340  15.165  70.060  0.00  0.00    -0.138 S 
BRANCH  18  19
ATOM     19  C   UNK A   1     -12.626  15.659  71.212  0.00  0.00    +0.088 C 
BRANCH  19  20
ATOM     20  C   UNK A   1     -12.146  14.989  72.655  0.00  0.00    +0.205 C 
ATOM     21  N   UNK A   1     -13.419  14.031  72.695  0.00  0.00    -0.120 NA
BRANCH  20  22
ATOM     22  C   UNK A   1     -12.881  16.145  73.535  0.00  0.00    +0.383 C 
ATOM     23  O   UNK A   1     -14.203  16.358  73.140  0.00  0.00    -0.244 OA
ATOM     24  O   UNK A   1     -12.557  16.224  74.723  0.00  0.00    -0.244 OA
ENDBRANCH  20  22
ENDBRANCH  19  20
ENDBRANCH  18  19
ENDBRANCH  17  18
ENDBRANCH  16  17
ENDBRANCH  15  16
ENDBRANCH  14  15
ENDBRANCH   2  14
TORSDOF 11
ENDMDL
MODEL 9
REMARK VINA RESULT:      -5.3      3.210      4.827
REMARK  Name = 
REMARK  11 active torsions:
REMARK  status: ('A' for Active; 'I' for Inactive)
REMARK    1  A    between atoms: C_5  and  C_6
REMARK    2  A    between atoms: N_8  and  C_9
REMARK    3  A    between atoms: C_9  and  C_22
REMARK    4  A    between atoms: C_10  and  C_11
REMARK    5  A    between atoms: C_11  and  C_12
REMARK    6  A    between atoms: C_12  and  C_13
REMARK    7  A    between atoms: C_13  and  C_14
REMARK    8  A    between atoms: C_14  and  S_15
REMARK    9  A    between atoms: S_15  and  C_16
REMARK   10  A    between atoms: C_16  and  C_17
REMARK   11  A    between atoms: C_17  and  C_19
REMARK                            x       y       z     vdW  Elec       q    Type
REMARK                         _______ _______ _______ _____ _____    ______ ____
ROOT
ATOM      1  C   UNK A   1      -9.740  17.778  66.308  0.00  0.00    +0.149 C 
ATOM      2  C   UNK A   1     -10.343  16.638  66.478  0.00  0.00    -0.003 C 
ENDROOT
BRANCH   1   4
ATOM      3  C   UNK A   0      -7.610  18.196  67.200  0.00  0.00    +0.245 C 
ATOM      4  N   UNK A   1      -8.350  17.907  65.999  0.00  0.00    -0.173 NA
ATOM      5  O   UNK A   0      -7.443  17.133  67.863  0.00  0.00    -0.273 OA
BRANCH   3   8
ATOM      6  C   UNK A   0      -5.301  20.081  68.263  0.00  0.00    +0.000 C 
ATOM      7  C   UNK A   0      -6.004  19.835  68.178  0.00  0.00    +0.009 C 
ATOM      8  C   UNK A   0      -6.138  18.875  66.812  0.00  0.00    +0.079 C 
ATOM      9  C   UNK A   0      -6.731  20.448  66.796  0.00  0.00    +0.010 C 
ATOM     10  C   UNK A   0      -6.984  19.702  69.219  0.00  0.00    +0.000 C 
ENDBRANCH   3   8
ENDBRANCH   1   4
BRANCH   1  11
ATOM     11  C   UNK A   1     -10.510  19.007  66.515  0.00  0.00    +0.402 C 
ATOM     12  O   UNK A   1     -10.878  19.287  67.835  0.00  0.00    -0.239 OA
ATOM     13  O   UNK A   1     -10.303  19.970  65.727  0.00  0.00    -0.239 OA
ENDBRANCH   1  11
BRANCH   2  14
ATOM     14  C   UNK A   1      -9.729  15.407  65.919  0.00  0.00    +0.028 C 
BRANCH  14  15
ATOM     15  C   UNK A   1      -9.958  14.349  66.997  0.00  0.00    +0.006 C 
BRANCH  15  16
ATOM     16  C   UNK A   1     -11.385  13.837  66.845  0.00  0.00    +0.012 C 
BRANCH  16  17
ATOM     17  C   UNK A   1     -11.981  13.423  68.170  0.00  0.00    +0.058 C 
BRANCH  17  18
ATOM     18  S   UNK A   1     -11.446  14.656  69.397  0.00  0.00    -0.138 S 
BRANCH  18  19
ATOM     19  C   UNK A   1     -12.128  14.231  71.003  0.00  0.00    +0.088 C 
BRANCH  19  20
ATOM     20  C   UNK A   1     -12.695  15.679  71.590  0.00  0.00    +0.205 C 
ATOM     21  N   UNK A   1     -11.963  15.459  72.988  0.00  0.00    -0.120 NA
BRANCH  20  22
ATOM     22  C   UNK A   1     -14.087  15.018  72.116  0.00  0.00    +0.383 C 
ATOM     23  O   UNK A   1     -15.200  15.483  71.411  0.00  0.00    -0.244 OA
ATOM     24  O   UNK A   1     -14.030  13.848  72.505  0.00  0.00    -0.244 OA
ENDBRANCH  20  22
ENDBRANCH  19  20
ENDBRANCH  18  19
ENDBRANCH  17  18
ENDBRANCH  16  17
ENDBRANCH  15  16
ENDBRANCH  14  15
ENDBRANCH   2  14
TORSDOF 11
ENDMDL
