MODEL 1
REMARK VINA RESULT:      -2.9      0.000      0.000
REMARK  Name = 
REMARK  0 active torsions:
REMARK  status: ('A' for Active; 'I' for Inactive)
REMARK                            x       y       z     vdW  Elec       q    Type
REMARK                         _______ _______ _______ _____ _____    ______ ____
ROOT
ATOM      1  N   UNL     1      -3.723  19.999  72.316  0.00  0.00    +0.139 NA
ATOM      2  C   UNL     1      -4.597  20.857  71.890  0.00  0.00    +0.574 C 
ATOM      3  N   UNL     1      -4.405  22.244  72.185  0.00  0.00    +0.139 NA
ATOM      4  N   UNL     1      -5.892  20.430  71.524  0.00  0.00    +0.139 NA
ENDROOT
TORSDOF 0
ENDMDL
MODEL 2
REMARK VINA RESULT:      -2.9      0.124      2.082
REMARK  Name = 
REMARK  0 active torsions:
REMARK  status: ('A' for Active; 'I' for Inactive)
REMARK                            x       y       z     vdW  Elec       q    Type
REMARK                         _______ _______ _______ _____ _____    ______ ____
ROOT
ATOM      1  N   UNL     1      -4.413  22.246  72.173  0.00  0.00    +0.139 NA
ATOM      2  C   UNL     1      -4.530  20.987  71.885  0.00  0.00    +0.574 C 
ATOM      3  N   UNL     1      -5.811  20.484  71.492  0.00  0.00    +0.139 NA
ATOM      4  N   UNL     1      -3.565  20.061  72.337  0.00  0.00    +0.139 NA
ENDROOT
TORSDOF 0
ENDMDL
MODEL 3
REMARK VINA RESULT:      -2.7      0.203      2.110
REMARK  Name = 
REMARK  0 active torsions:
REMARK  status: ('A' for Active; 'I' for Inactive)
REMARK                            x       y       z     vdW  Elec       q    Type
REMARK                         _______ _______ _______ _____ _____    ______ ____
ROOT
ATOM      1  N   UNL     1      -5.956  20.654  71.521  0.00  0.00    +0.139 NA
ATOM      2  C   UNL     1      -4.742  20.991  71.827  0.00  0.00    +0.574 C 
ATOM      3  N   UNL     1      -3.787  19.960  72.103  0.00  0.00    +0.139 NA
ATOM      4  N   UNL     1      -4.461  22.295  72.288  0.00  0.00    +0.139 NA
ENDROOT
TORSDOF 0
ENDMDL
MODEL 4
REMARK VINA RESULT:      -2.7      4.362      5.315
REMARK  Name = 
REMARK  0 active torsions:
REMARK  status: ('A' for Active; 'I' for Inactive)
REMARK                            x       y       z     vdW  Elec       q    Type
REMARK                         _______ _______ _______ _____ _____    ______ ____
ROOT
ATOM      1  N   UNL     1      -5.171  24.563  73.309  0.00  0.00    +0.139 NA
ATOM      2  C   UNL     1      -4.797  25.053  74.449  0.00  0.00    +0.574 C 
ATOM      3  N   UNL     1      -5.740  25.096  75.526  0.00  0.00    +0.139 NA
ATOM      4  N   UNL     1      -3.665  25.893  74.526  0.00  0.00    +0.139 NA
ENDROOT
TORSDOF 0
ENDMDL
MODEL 5
REMARK VINA RESULT:      -2.6     10.169     10.988
REMARK  Name = 
REMARK  0 active torsions:
REMARK  status: ('A' for Active; 'I' for Inactive)
REMARK                            x       y       z     vdW  Elec       q    Type
REMARK                         _______ _______ _______ _____ _____    ______ ____
ROOT
ATOM      1  N   UNL     1     -14.185  15.881  72.446  0.00  0.00    +0.139 NA
ATOM      2  C   UNL     1     -13.435  14.900  72.841  0.00  0.00    +0.574 C 
ATOM      3  N   UNL     1     -13.853  13.558  72.567  0.00  0.00    +0.139 NA
ATOM      4  N   UNL     1     -12.476  15.101  73.857  0.00  0.00    +0.139 NA
ENDROOT
TORSDOF 0
ENDMDL
MODEL 6
REMARK VINA RESULT:      -2.6     12.931     13.490
REMARK  Name = 
REMARK  0 active torsions:
REMARK  status: ('A' for Active; 'I' for Inactive)
REMARK                            x       y       z     vdW  Elec       q    Type
REMARK                         _______ _______ _______ _____ _____    ______ ____
ROOT
ATOM      1  N   UNL     1     -13.072  14.061  65.165  0.00  0.00    +0.139 NA
ATOM      2  C   UNL     1     -12.548  12.891  64.975  0.00  0.00    +0.574 C 
ATOM      3  N   UNL     1     -12.834  12.195  63.757  0.00  0.00    +0.139 NA
ATOM      4  N   UNL     1     -12.068  12.140  66.070  0.00  0.00    +0.139 NA
ENDROOT
TORSDOF 0
ENDMDL
MODEL 7
REMARK VINA RESULT:      -2.6     10.286     10.950
REMARK  Name = 
REMARK  0 active torsions:
REMARK  status: ('A' for Active; 'I' for Inactive)
REMARK                            x       y       z     vdW  Elec       q    Type
REMARK                         _______ _______ _______ _____ _____    ______ ____
ROOT
ATOM      1  N   UNL     1     -13.931  13.493  72.539  0.00  0.00    +0.139 NA
ATOM      2  C   UNL     1     -13.546  14.721  72.694  0.00  0.00    +0.574 C 
ATOM      3  N   UNL     1     -12.571  15.019  73.700  0.00  0.00    +0.139 NA
ATOM      4  N   UNL     1     -14.339  15.782  72.207  0.00  0.00    +0.139 NA
ENDROOT
TORSDOF 0
ENDMDL
MODEL 8
REMARK VINA RESULT:      -2.6     12.936     13.368
REMARK  Name = 
REMARK  0 active torsions:
REMARK  status: ('A' for Active; 'I' for Inactive)
REMARK                            x       y       z     vdW  Elec       q    Type
REMARK                         _______ _______ _______ _____ _____    ______ ____
ROOT
ATOM      1  N   UNL     1     -12.073  12.135  65.941  0.00  0.00    +0.139 NA
ATOM      2  C   UNL     1     -12.527  12.831  64.946  0.00  0.00    +0.574 C 
ATOM      3  N   UNL     1     -13.089  14.122  65.204  0.00  0.00    +0.139 NA
ATOM      4  N   UNL     1     -12.853  12.199  63.726  0.00  0.00    +0.139 NA
ENDROOT
TORSDOF 0
ENDMDL
MODEL 9
REMARK VINA RESULT:      -2.6      4.419      5.304
REMARK  Name = 
REMARK  0 active torsions:
REMARK  status: ('A' for Active; 'I' for Inactive)
REMARK                            x       y       z     vdW  Elec       q    Type
REMARK                         _______ _______ _______ _____ _____    ______ ____
ROOT
ATOM      1  N   UNL     1      -3.580  25.853  74.475  0.00  0.00    +0.139 NA
ATOM      2  C   UNL     1      -4.675  25.161  74.528  0.00  0.00    +0.574 C 
ATOM      3  N   UNL     1      -5.191  24.588  73.322  0.00  0.00    +0.139 NA
ATOM      4  N   UNL     1      -5.557  25.307  75.621  0.00  0.00    +0.139 NA
ENDROOT
TORSDOF 0
ENDMDL
