MODEL 1
REMARK VINA RESULT:      -8.2      0.000      0.000
REMARK  Name = 
REMARK  6 active torsions:
REMARK  status: ('A' for Active; 'I' for Inactive)
REMARK    1  A    between atoms: C_9  and  C_10
REMARK    2  A    between atoms: C_10  and  O_12
REMARK    3  A    between atoms: O_12  and  C_13
REMARK    4  A    between atoms: C_13  and  C_14
REMARK    5  A    between atoms: C_14  and  N_15
REMARK    6  A    between atoms: C_23  and  C_24
REMARK                            x       y       z     vdW  Elec       q    Type
REMARK                         _______ _______ _______ _____ _____    ______ ____
ROOT
ATOM      1  C   UNL     1     -11.841  12.482  70.246  0.00  0.00    +0.038 C 
ATOM      2  C   UNL     1     -11.650  13.366  69.081  0.00  0.00    +0.052 A 
ATOM      3  C   UNL     1     -11.614  14.732  69.337  0.00  0.00    +0.144 A 
ATOM      4  O   UNL     1     -11.197  15.481  68.332  0.00  0.00    -0.453 OA
ATOM      5  C   UNL     1     -11.124  14.982  67.111  0.00  0.00    +0.154 A 
ATOM      6  C   UNL     1     -11.691  13.763  66.772  0.00  0.00    +0.073 A 
ATOM      7  C   UNL     1     -12.319  13.579  65.553  0.00  0.00    +0.006 A 
ATOM      8  C   UNL     1     -12.137  14.547  64.572  0.00  0.00    +0.001 A 
ATOM      9  C   UNL     1     -11.206  15.551  64.808  0.00  0.00    +0.010 A 
ATOM     10  C   UNL     1     -10.766  15.848  66.086  0.00  0.00    +0.110 A 
ATOM     11  C   UNL     1     -11.849  12.857  67.813  0.00  0.00    +0.197 A 
ATOM     12  O   UNL     1     -12.201  11.689  67.563  0.00  0.00    -0.287 OA
ENDROOT
BRANCH   3  13
ATOM     13  C   UNL     1     -12.387  15.338  70.428  0.00  0.00    +0.034 A 
ATOM     14  C   UNL     1     -11.730  16.011  71.428  0.00  0.00    +0.003 A 
ATOM     15  C   UNL     1     -12.182  16.042  72.742  0.00  0.00    +0.000 A 
ATOM     16  C   UNL     1     -13.317  15.318  73.072  0.00  0.00    +0.000 A 
ATOM     17  C   UNL     1     -14.156  14.996  72.012  0.00  0.00    +0.000 A 
ATOM     18  C   UNL     1     -13.694  14.954  70.702  0.00  0.00    +0.003 A 
ENDBRANCH   3  13
BRANCH  10  19
ATOM     19  C   UNL     1      -9.660  16.776  66.342  0.00  0.00    +0.344 C 
ATOM     20  O   UNL     1      -8.523  16.477  65.871  0.00  0.00    -0.245 OA
BRANCH  19  21
ATOM     21  O   UNL     1      -9.888  18.106  66.617  0.00  0.00    -0.444 OA
BRANCH  21  22
ATOM     22  C   UNL     1      -9.548  18.648  67.880  0.00  0.00    +0.226 C 
BRANCH  22  23
ATOM     23  C   UNL     1      -8.396  19.630  67.785  0.00  0.00    +0.120 C 
BRANCH  23  24
ATOM     24  N   UNL     1      -7.177  19.000  68.285  0.00  0.00    -0.270 NA
ATOM     25  C   UNL     1      -6.608  19.855  69.295  0.00  0.00    +0.072 C 
ATOM     26  C   UNL     1      -5.477  20.675  68.739  0.00  0.00    +0.017 C 
ATOM     27  C   UNL     1      -5.960  21.281  67.438  0.00  0.00    +0.003 C 
ATOM     28  C   UNL     1      -6.106  20.179  66.407  0.00  0.00    +0.017 C 
ATOM     29  C   UNL     1      -6.279  18.883  67.149  0.00  0.00    +0.072 C 
ENDBRANCH  23  24
ENDBRANCH  22  23
ENDBRANCH  21  22
ENDBRANCH  19  21
ENDBRANCH  10  19
TORSDOF 6
ENDMDL
MODEL 2
REMARK VINA RESULT:      -7.9      4.581      7.735
REMARK  Name = 
REMARK  6 active torsions:
REMARK  status: ('A' for Active; 'I' for Inactive)
REMARK    1  A    between atoms: C_9  and  C_10
REMARK    2  A    between atoms: C_10  and  O_12
REMARK    3  A    between atoms: O_12  and  C_13
REMARK    4  A    between atoms: C_13  and  C_14
REMARK    5  A    between atoms: C_14  and  N_15
REMARK    6  A    between atoms: C_23  and  C_24
REMARK                            x       y       z     vdW  Elec       q    Type
REMARK                         _______ _______ _______ _____ _____    ______ ____
ROOT
ATOM      1  C   UNL     1     -10.056   9.317  65.878  0.00  0.00    +0.038 C 
ATOM      2  C   UNL     1     -10.325   9.352  67.328  0.00  0.00    +0.052 A 
ATOM      3  C   UNL     1     -11.010  10.462  67.808  0.00  0.00    +0.144 A 
ATOM      4  O   UNL     1     -11.455  10.356  69.047  0.00  0.00    -0.453 OA
ATOM      5  C   UNL     1     -11.007   9.397  69.839  0.00  0.00    +0.154 A 
ATOM      6  C   UNL     1      -9.904   8.622  69.515  0.00  0.00    +0.073 A 
ATOM      7  C   UNL     1      -8.985   8.247  70.478  0.00  0.00    +0.006 A 
ATOM      8  C   UNL     1      -9.325   8.430  71.813  0.00  0.00    +0.001 A 
ATOM      9  C   UNL     1     -10.626   8.818  72.109  0.00  0.00    +0.010 A 
ATOM     10  C   UNL     1     -11.446   9.399  71.156  0.00  0.00    +0.110 A 
ATOM     11  C   UNL     1      -9.626   8.499  68.160  0.00  0.00    +0.197 A 
ATOM     12  O   UNL     1      -8.752   7.695  67.781  0.00  0.00    -0.287 OA
ENDROOT
BRANCH   3  13
ATOM     13  C   UNL     1     -10.865  11.788  67.194  0.00  0.00    +0.034 A 
ATOM     14  C   UNL     1      -9.974  12.685  67.729  0.00  0.00    +0.003 A 
ATOM     15  C   UNL     1     -10.183  14.059  67.711  0.00  0.00    +0.000 A 
ATOM     16  C   UNL     1     -11.367  14.545  67.178  0.00  0.00    +0.000 A 
ATOM     17  C   UNL     1     -12.036  13.687  66.313  0.00  0.00    +0.000 A 
ATOM     18  C   UNL     1     -11.831  12.313  66.345  0.00  0.00    +0.003 A 
ENDBRANCH   3  13
BRANCH  10  19
ATOM     19  C   UNL     1     -12.869   9.653  71.393  0.00  0.00    +0.344 C 
ATOM     20  O   UNL     1     -13.646   8.653  71.433  0.00  0.00    -0.245 OA
BRANCH  19  21
ATOM     21  O   UNL     1     -13.298  10.798  72.028  0.00  0.00    -0.444 OA
BRANCH  21  22
ATOM     22  C   UNL     1     -12.990  12.074  71.497  0.00  0.00    +0.226 C 
BRANCH  22  23
ATOM     23  C   UNL     1     -13.595  13.193  72.323  0.00  0.00    +0.120 C 
BRANCH  23  24
ATOM     24  N   UNL     1     -13.943  14.310  71.449  0.00  0.00    -0.270 NA
ATOM     25  C   UNL     1     -12.830  14.559  70.569  0.00  0.00    +0.072 C 
ATOM     26  C   UNL     1     -12.002  15.717  71.053  0.00  0.00    +0.017 C 
ATOM     27  C   UNL     1     -11.748  15.501  72.529  0.00  0.00    +0.003 C 
ATOM     28  C   UNL     1     -13.050  15.688  73.284  0.00  0.00    +0.017 C 
ATOM     29  C   UNL     1     -14.175  15.454  72.315  0.00  0.00    +0.072 C 
ENDBRANCH  23  24
ENDBRANCH  22  23
ENDBRANCH  21  22
ENDBRANCH  19  21
ENDBRANCH  10  19
TORSDOF 6
ENDMDL
MODEL 3
REMARK VINA RESULT:      -7.5      3.572      7.108
REMARK  Name = 
REMARK  6 active torsions:
REMARK  status: ('A' for Active; 'I' for Inactive)
REMARK    1  A    between atoms: C_9  and  C_10
REMARK    2  A    between atoms: C_10  and  O_12
REMARK    3  A    between atoms: O_12  and  C_13
REMARK    4  A    between atoms: C_13  and  C_14
REMARK    5  A    between atoms: C_14  and  N_15
REMARK    6  A    between atoms: C_23  and  C_24
REMARK                            x       y       z     vdW  Elec       q    Type
REMARK                         _______ _______ _______ _____ _____    ______ ____
ROOT
ATOM      1  C   UNL     1      -7.477  16.771  66.713  0.00  0.00    +0.038 C 
ATOM      2  C   UNL     1      -8.586  15.801  66.769  0.00  0.00    +0.052 A 
ATOM      3  C   UNL     1      -9.866  16.307  66.571  0.00  0.00    +0.144 A 
ATOM      4  O   UNL     1     -10.805  15.400  66.377  0.00  0.00    -0.453 OA
ATOM      5  C   UNL     1     -10.576  14.129  66.657  0.00  0.00    +0.154 A 
ATOM      6  C   UNL     1      -9.466  13.716  67.377  0.00  0.00    +0.073 A 
ATOM      7  C   UNL     1      -9.554  12.699  68.311  0.00  0.00    +0.006 A 
ATOM      8  C   UNL     1     -10.706  11.921  68.322  0.00  0.00    +0.001 A 
ATOM      9  C   UNL     1     -11.623  12.095  67.293  0.00  0.00    +0.010 A 
ATOM     10  C   UNL     1     -11.636  13.242  66.517  0.00  0.00    +0.110 A 
ATOM     11  C   UNL     1      -8.361  14.557  67.324  0.00  0.00    +0.197 A 
ATOM     12  O   UNL     1      -7.278  14.181  67.810  0.00  0.00    -0.287 OA
ENDROOT
BRANCH   3  13
ATOM     13  C   UNL     1     -10.236  17.665  66.991  0.00  0.00    +0.034 A 
ATOM     14  C   UNL     1     -10.434  18.635  66.040  0.00  0.00    +0.003 A 
ATOM     15  C   UNL     1     -10.140  19.976  66.256  0.00  0.00    +0.000 A 
ATOM     16  C   UNL     1      -9.572  20.346  67.466  0.00  0.00    +0.000 A 
ATOM     17  C   UNL     1      -9.755  19.453  68.515  0.00  0.00    +0.000 A 
ATOM     18  C   UNL     1     -10.036  18.111  68.291  0.00  0.00    +0.003 A 
ENDBRANCH   3  13
BRANCH  10  19
ATOM     19  C   UNL     1     -12.472  13.374  65.321  0.00  0.00    +0.344 C 
ATOM     20  O   UNL     1     -13.579  13.978  65.441  0.00  0.00    -0.245 OA
BRANCH  19  21
ATOM     21  O   UNL     1     -11.928  13.320  64.056  0.00  0.00    -0.444 OA
BRANCH  21  22
ATOM     22  C   UNL     1     -12.072  12.158  63.260  0.00  0.00    +0.226 C 
BRANCH  22  23
ATOM     23  C   UNL     1     -11.082  11.077  63.649  0.00  0.00    +0.120 C 
BRANCH  23  24
ATOM     24  N   UNL     1      -9.734  11.636  63.670  0.00  0.00    -0.270 NA
ATOM     25  C   UNL     1      -9.035  11.177  62.497  0.00  0.00    +0.072 C 
ATOM     26  C   UNL     1      -8.129  10.022  62.820  0.00  0.00    +0.017 C 
ATOM     27  C   UNL     1      -8.934   9.036  63.639  0.00  0.00    +0.003 C 
ATOM     28  C   UNL     1      -9.203   9.636  65.005  0.00  0.00    +0.017 C 
ATOM     29  C   UNL     1      -9.097  11.130  64.874  0.00  0.00    +0.072 C 
ENDBRANCH  23  24
ENDBRANCH  22  23
ENDBRANCH  21  22
ENDBRANCH  19  21
ENDBRANCH  10  19
TORSDOF 6
ENDMDL
MODEL 4
REMARK VINA RESULT:      -7.4      4.241      9.320
REMARK  Name = 
REMARK  6 active torsions:
REMARK  status: ('A' for Active; 'I' for Inactive)
REMARK    1  A    between atoms: C_9  and  C_10
REMARK    2  A    between atoms: C_10  and  O_12
REMARK    3  A    between atoms: O_12  and  C_13
REMARK    4  A    between atoms: C_13  and  C_14
REMARK    5  A    between atoms: C_14  and  N_15
REMARK    6  A    between atoms: C_23  and  C_24
REMARK                            x       y       z     vdW  Elec       q    Type
REMARK                         _______ _______ _______ _____ _____    ______ ____
ROOT
ATOM      1  C   UNL     1      -9.856  14.819  67.477  0.00  0.00    +0.038 C 
ATOM      2  C   UNL     1     -10.738  14.186  68.476  0.00  0.00    +0.052 A 
ATOM      3  C   UNL     1     -11.377  13.015  68.087  0.00  0.00    +0.144 A 
ATOM      4  O   UNL     1     -11.954  12.339  69.064  0.00  0.00    -0.453 OA
ATOM      5  C   UNL     1     -12.154  12.904  70.242  0.00  0.00    +0.154 A 
ATOM      6  C   UNL     1     -12.004  14.267  70.446  0.00  0.00    +0.073 A 
ATOM      7  C   UNL     1     -12.871  14.969  71.264  0.00  0.00    +0.006 A 
ATOM      8  C   UNL     1     -13.726  14.243  72.085  0.00  0.00    +0.001 A 
ATOM      9  C   UNL     1     -13.545  12.868  72.165  0.00  0.00    +0.010 A 
ATOM     10  C   UNL     1     -12.848  12.169  71.194  0.00  0.00    +0.110 A 
ATOM     11  C   UNL     1     -11.142  14.919  69.574  0.00  0.00    +0.197 A 
ATOM     12  O   UNL     1     -10.832  16.107  69.789  0.00  0.00    -0.287 OA
ENDROOT
BRANCH   3  13
ATOM     13  C   UNL     1     -11.781  12.777  66.696  0.00  0.00    +0.034 A 
ATOM     14  C   UNL     1     -11.202  11.750  65.991  0.00  0.00    +0.003 A 
ATOM     15  C   UNL     1     -10.977  11.807  64.621  0.00  0.00    +0.000 A 
ATOM     16  C   UNL     1     -11.302  12.971  63.941  0.00  0.00    +0.000 A 
ATOM     17  C   UNL     1     -12.221  13.800  64.572  0.00  0.00    +0.000 A 
ATOM     18  C   UNL     1     -12.432  13.747  65.945  0.00  0.00    +0.003 A 
ENDBRANCH   3  13
BRANCH  10  19
ATOM     19  C   UNL     1     -12.495  10.755  71.344  0.00  0.00    +0.344 C 
ATOM     20  O   UNL     1     -13.440   9.912  71.367  0.00  0.00    -0.245 OA
BRANCH  19  21
ATOM     21  O   UNL     1     -11.252  10.283  70.981  0.00  0.00    -0.444 OA
BRANCH  21  22
ATOM     22  C   UNL     1     -10.753   9.076  71.527  0.00  0.00    +0.226 C 
BRANCH  22  23
ATOM     23  C   UNL     1     -10.518   8.025  70.459  0.00  0.00    +0.120 C 
BRANCH  23  24
ATOM     24  N   UNL     1     -11.599   7.045  70.492  0.00  0.00    -0.270 NA
ATOM     25  C   UNL     1     -11.889   6.737  71.869  0.00  0.00    +0.072 C 
ATOM     26  C   UNL     1     -11.244   5.444  72.284  0.00  0.00    +0.017 C 
ATOM     27  C   UNL     1      -9.804   5.491  71.819  0.00  0.00    +0.003 C 
ATOM     28  C   UNL     1      -9.773   5.405  70.305  0.00  0.00    +0.017 C 
ATOM     29  C   UNL     1     -11.109   5.867  69.796  0.00  0.00    +0.072 C 
ENDBRANCH  23  24
ENDBRANCH  22  23
ENDBRANCH  21  22
ENDBRANCH  19  21
ENDBRANCH  10  19
TORSDOF 6
ENDMDL
MODEL 5
REMARK VINA RESULT:      -7.4      2.630      5.039
REMARK  Name = 
REMARK  6 active torsions:
REMARK  status: ('A' for Active; 'I' for Inactive)
REMARK    1  A    between atoms: C_9  and  C_10
REMARK    2  A    between atoms: C_10  and  O_12
REMARK    3  A    between atoms: O_12  and  C_13
REMARK    4  A    between atoms: C_13  and  C_14
REMARK    5  A    between atoms: C_14  and  N_15
REMARK    6  A    between atoms: C_23  and  C_24
REMARK                            x       y       z     vdW  Elec       q    Type
REMARK                         _______ _______ _______ _____ _____    ______ ____
ROOT
ATOM      1  C   UNL     1     -13.178   9.962  71.213  0.00  0.00    +0.038 C 
ATOM      2  C   UNL     1     -12.600  11.194  70.643  0.00  0.00    +0.052 A 
ATOM      3  C   UNL     1     -11.567  11.031  69.728  0.00  0.00    +0.144 A 
ATOM      4  O   UNL     1     -11.240  12.117  69.051  0.00  0.00    -0.453 OA
ATOM      5  C   UNL     1     -11.661  13.305  69.448  0.00  0.00    +0.154 A 
ATOM      6  C   UNL     1     -12.243  13.509  70.689  0.00  0.00    +0.073 A 
ATOM      7  C   UNL     1     -11.976  14.648  71.428  0.00  0.00    +0.006 A 
ATOM      8  C   UNL     1     -11.331  15.702  70.792  0.00  0.00    +0.001 A 
ATOM      9  C   UNL     1     -11.144  15.622  69.417  0.00  0.00    +0.010 A 
ATOM     10  C   UNL     1     -11.204  14.413  68.746  0.00  0.00    +0.110 A 
ATOM     11  C   UNL     1     -12.857  12.402  71.261  0.00  0.00    +0.197 A 
ATOM     12  O   UNL     1     -13.537  12.541  72.295  0.00  0.00    -0.287 OA
ENDROOT
BRANCH   3  13
ATOM     13  C   UNL     1     -10.621   9.912  69.817  0.00  0.00    +0.034 A 
ATOM     14  C   UNL     1     -10.535   9.016  68.780  0.00  0.00    +0.003 A 
ATOM     15  C   UNL     1     -10.239   7.672  68.967  0.00  0.00    +0.000 A 
ATOM     16  C   UNL     1     -10.074   7.199  70.260  0.00  0.00    +0.000 A 
ATOM     17  C   UNL     1      -9.773   8.159  71.218  0.00  0.00    +0.000 A 
ATOM     18  C   UNL     1     -10.084   9.501  71.030  0.00  0.00    +0.003 A 
ENDBRANCH   3  13
BRANCH  10  19
ATOM     19  C   UNL     1     -11.187  14.323  67.283  0.00  0.00    +0.344 C 
ATOM     20  O   UNL     1     -12.302  14.275  66.684  0.00  0.00    -0.245 OA
BRANCH  19  21
ATOM     21  O   UNL     1     -10.107  14.765  66.550  0.00  0.00    -0.444 OA
BRANCH  21  22
ATOM     22  C   UNL     1     -10.248  15.835  65.634  0.00  0.00    +0.226 C 
BRANCH  22  23
ATOM     23  C   UNL     1     -10.391  17.171  66.339  0.00  0.00    +0.120 C 
BRANCH  23  24
ATOM     24  N   UNL     1      -9.186  17.967  66.121  0.00  0.00    -0.270 NA
ATOM     25  C   UNL     1      -8.242  17.653  67.162  0.00  0.00    +0.072 C 
ATOM     26  C   UNL     1      -8.255  18.700  68.242  0.00  0.00    +0.017 C 
ATOM     27  C   UNL     1      -9.702  18.954  68.603  0.00  0.00    +0.003 C 
ATOM     28  C   UNL     1     -10.380  19.664  67.448  0.00  0.00    +0.017 C 
ATOM     29  C   UNL     1      -9.593  19.360  66.203  0.00  0.00    +0.072 C 
ENDBRANCH  23  24
ENDBRANCH  22  23
ENDBRANCH  21  22
ENDBRANCH  19  21
ENDBRANCH  10  19
TORSDOF 6
ENDMDL
MODEL 6
REMARK VINA RESULT:      -7.4      2.113      6.577
REMARK  Name = 
REMARK  6 active torsions:
REMARK  status: ('A' for Active; 'I' for Inactive)
REMARK    1  A    between atoms: C_9  and  C_10
REMARK    2  A    between atoms: C_10  and  O_12
REMARK    3  A    between atoms: O_12  and  C_13
REMARK    4  A    between atoms: C_13  and  C_14
REMARK    5  A    between atoms: C_14  and  N_15
REMARK    6  A    between atoms: C_23  and  C_24
REMARK                            x       y       z     vdW  Elec       q    Type
REMARK                         _______ _______ _______ _____ _____    ______ ____
ROOT
ATOM      1  C   UNL     1     -10.068  18.083  66.325  0.00  0.00    +0.038 C 
ATOM      2  C   UNL     1     -10.195  16.614  66.341  0.00  0.00    +0.052 A 
ATOM      3  C   UNL     1      -9.360  15.926  67.214  0.00  0.00    +0.144 A 
ATOM      4  O   UNL     1      -9.661  14.653  67.394  0.00  0.00    -0.453 OA
ATOM      5  C   UNL     1     -10.493  14.039  66.571  0.00  0.00    +0.154 A 
ATOM      6  C   UNL     1     -10.897  14.600  65.369  0.00  0.00    +0.073 A 
ATOM      7  C   UNL     1     -11.045  13.827  64.232  0.00  0.00    +0.006 A 
ATOM      8  C   UNL     1     -11.044  12.444  64.377  0.00  0.00    +0.001 A 
ATOM      9  C   UNL     1     -11.066  11.922  65.664  0.00  0.00    +0.010 A 
ATOM     10  C   UNL     1     -10.694  12.678  66.762  0.00  0.00    +0.110 A 
ATOM     11  C   UNL     1     -10.856  15.987  65.303  0.00  0.00    +0.197 A 
ATOM     12  O   UNL     1     -11.350  16.571  64.320  0.00  0.00    -0.287 OA
ENDROOT
BRANCH   3  13
ATOM     13  C   UNL     1      -8.016  16.414  67.547  0.00  0.00    +0.034 A 
ATOM     14  C   UNL     1      -7.825  17.130  68.703  0.00  0.00    +0.003 A 
ATOM     15  C   UNL     1      -6.881  18.143  68.817  0.00  0.00    +0.000 A 
ATOM     16  C   UNL     1      -6.132  18.484  67.700  0.00  0.00    +0.000 A 
ATOM     17  C   UNL     1      -6.058  17.516  66.706  0.00  0.00    +0.000 A 
ATOM     18  C   UNL     1      -7.014  16.513  66.590  0.00  0.00    +0.003 A 
ENDBRANCH   3  13
BRANCH  10  19
ATOM     19  C   UNL     1     -10.875  12.210  68.139  0.00  0.00    +0.344 C 
ATOM     20  O   UNL     1      -9.884  11.664  68.709  0.00  0.00    -0.245 OA
BRANCH  19  21
ATOM     21  O   UNL     1     -11.845  12.746  68.957  0.00  0.00    -0.444 OA
BRANCH  21  22
ATOM     22  C   UNL     1     -12.052  12.231  70.260  0.00  0.00    +0.226 C 
BRANCH  22  23
ATOM     23  C   UNL     1     -12.699  13.252  71.177  0.00  0.00    +0.120 C 
BRANCH  23  24
ATOM     24  N   UNL     1     -12.443  14.596  70.668  0.00  0.00    -0.270 NA
ATOM     25  C   UNL     1     -11.406  15.193  71.470  0.00  0.00    +0.072 C 
ATOM     26  C   UNL     1     -11.982  16.126  72.499  0.00  0.00    +0.017 C 
ATOM     27  C   UNL     1     -13.120  15.395  73.179  0.00  0.00    +0.003 C 
ATOM     28  C   UNL     1     -14.264  15.242  72.195  0.00  0.00    +0.017 C 
ATOM     29  C   UNL     1     -13.687  15.334  70.810  0.00  0.00    +0.072 C 
ENDBRANCH  23  24
ENDBRANCH  22  23
ENDBRANCH  21  22
ENDBRANCH  19  21
ENDBRANCH  10  19
TORSDOF 6
ENDMDL
MODEL 7
REMARK VINA RESULT:      -7.3      3.014      5.723
REMARK  Name = 
REMARK  6 active torsions:
REMARK  status: ('A' for Active; 'I' for Inactive)
REMARK    1  A    between atoms: C_9  and  C_10
REMARK    2  A    between atoms: C_10  and  O_12
REMARK    3  A    between atoms: O_12  and  C_13
REMARK    4  A    between atoms: C_13  and  C_14
REMARK    5  A    between atoms: C_14  and  N_15
REMARK    6  A    between atoms: C_23  and  C_24
REMARK                            x       y       z     vdW  Elec       q    Type
REMARK                         _______ _______ _______ _____ _____    ______ ____
ROOT
ATOM      1  C   UNL     1     -12.038  12.312  63.493  0.00  0.00    +0.038 C 
ATOM      2  C   UNL     1     -11.361  12.782  64.717  0.00  0.00    +0.052 A 
ATOM      3  C   UNL     1     -10.194  12.119  65.077  0.00  0.00    +0.144 A 
ATOM      4  O   UNL     1      -9.480  12.709  66.018  0.00  0.00    -0.453 OA
ATOM      5  C   UNL     1     -10.006  13.675  66.750  0.00  0.00    +0.154 A 
ATOM      6  C   UNL     1     -11.363  13.954  66.746  0.00  0.00    +0.073 A 
ATOM      7  C   UNL     1     -12.028  14.299  67.910  0.00  0.00    +0.006 A 
ATOM      8  C   UNL     1     -11.265  14.622  69.026  0.00  0.00    +0.001 A 
ATOM      9  C   UNL     1      -9.890  14.746  68.865  0.00  0.00    +0.010 A 
ATOM     10  C   UNL     1      -9.232  14.188  67.783  0.00  0.00    +0.110 A 
ATOM     11  C   UNL     1     -12.055  13.588  65.598  0.00  0.00    +0.197 A 
ATOM     12  O   UNL     1     -13.239  13.946  65.453  0.00  0.00    -0.287 OA
ENDROOT
BRANCH   3  13
ATOM     13  C   UNL     1      -9.993  10.693  64.792  0.00  0.00    +0.034 A 
ATOM     14  C   UNL     1     -10.155   9.775  65.800  0.00  0.00    +0.003 A 
ATOM     15  C   UNL     1      -9.417   8.600  65.878  0.00  0.00    +0.000 A 
ATOM     16  C   UNL     1      -8.435   8.367  64.926  0.00  0.00    +0.000 A 
ATOM     17  C   UNL     1      -8.566   9.078  63.740  0.00  0.00    +0.000 A 
ATOM     18  C   UNL     1      -9.295  10.259  63.673  0.00  0.00    +0.003 A 
ENDBRANCH   3  13
BRANCH  10  19
ATOM     19  C   UNL     1      -7.819  14.454  67.499  0.00  0.00    +0.344 C 
ATOM     20  O   UNL     1      -6.982  13.547  67.785  0.00  0.00    -0.245 OA
BRANCH  19  21
ATOM     21  O   UNL     1      -7.438  15.371  66.544  0.00  0.00    -0.444 OA
BRANCH  21  22
ATOM     22  C   UNL     1      -6.867  16.609  66.923  0.00  0.00    +0.226 C 
BRANCH  22  23
ATOM     23  C   UNL     1      -7.920  17.609  67.365  0.00  0.00    +0.120 C 
BRANCH  23  24
ATOM     24  N   UNL     1      -8.646  18.099  66.197  0.00  0.00    -0.270 NA
ATOM     25  C   UNL     1      -8.556  19.536  66.177  0.00  0.00    +0.072 C 
ATOM     26  C   UNL     1      -9.807  20.167  66.722  0.00  0.00    +0.017 C 
ATOM     27  C   UNL     1     -10.139  19.461  68.018  0.00  0.00    +0.003 C 
ATOM     28  C   UNL     1     -10.591  18.047  67.706  0.00  0.00    +0.017 C 
ATOM     29  C   UNL     1     -10.027  17.676  66.364  0.00  0.00    +0.072 C 
ENDBRANCH  23  24
ENDBRANCH  22  23
ENDBRANCH  21  22
ENDBRANCH  19  21
ENDBRANCH  10  19
TORSDOF 6
ENDMDL
MODEL 8
REMARK VINA RESULT:      -7.3      3.794      8.808
REMARK  Name = 
REMARK  6 active torsions:
REMARK  status: ('A' for Active; 'I' for Inactive)
REMARK    1  A    between atoms: C_9  and  C_10
REMARK    2  A    between atoms: C_10  and  O_12
REMARK    3  A    between atoms: O_12  and  C_13
REMARK    4  A    between atoms: C_13  and  C_14
REMARK    5  A    between atoms: C_14  and  N_15
REMARK    6  A    between atoms: C_23  and  C_24
REMARK                            x       y       z     vdW  Elec       q    Type
REMARK                         _______ _______ _______ _____ _____    ______ ____
ROOT
ATOM      1  C   UNL     1      -4.098  18.468  66.385  0.00  0.00    +0.038 C 
ATOM      2  C   UNL     1      -5.568  18.494  66.502  0.00  0.00    +0.052 A 
ATOM      3  C   UNL     1      -6.283  18.660  65.322  0.00  0.00    +0.144 A 
ATOM      4  O   UNL     1      -7.581  18.431  65.414  0.00  0.00    -0.453 OA
ATOM      5  C   UNL     1      -8.164  18.356  66.597  0.00  0.00    +0.154 A 
ATOM      6  C   UNL     1      -7.526  18.743  67.765  0.00  0.00    +0.073 A 
ATOM      7  C   UNL     1      -8.207  19.410  68.768  0.00  0.00    +0.006 A 
ATOM      8  C   UNL     1      -9.596  19.446  68.701  0.00  0.00    +0.001 A 
ATOM      9  C   UNL     1     -10.225  18.673  67.733  0.00  0.00    +0.010 A 
ATOM     10  C   UNL     1      -9.545  18.206  66.621  0.00  0.00    +0.110 A 
ATOM     11  C   UNL     1      -6.138  18.689  67.745  0.00  0.00    +0.197 A 
ATOM     12  O   UNL     1      -5.500  18.866  68.800  0.00  0.00    -0.287 OA
ENDROOT
BRANCH   3  13
ATOM     13  C   UNL     1      -5.758  19.449  64.200  0.00  0.00    +0.034 A 
ATOM     14  C   UNL     1      -6.176  20.746  64.034  0.00  0.00    +0.003 A 
ATOM     15  C   UNL     1      -6.307  21.344  62.787  0.00  0.00    +0.000 A 
ATOM     16  C   UNL     1      -6.055  20.583  61.655  0.00  0.00    +0.000 A 
ATOM     17  C   UNL     1      -5.274  19.451  61.851  0.00  0.00    +0.000 A 
ATOM     18  C   UNL     1      -5.159  18.851  63.100  0.00  0.00    +0.003 A 
ENDBRANCH   3  13
BRANCH  10  19
ATOM     19  C   UNL     1     -10.136  17.248  65.682  0.00  0.00    +0.344 C 
ATOM     20  O   UNL     1     -10.994  17.686  64.859  0.00  0.00    -0.245 OA
BRANCH  19  21
ATOM     21  O   UNL     1      -9.484  16.084  65.340  0.00  0.00    -0.444 OA
BRANCH  21  22
ATOM     22  C   UNL     1      -9.903  14.841  65.872  0.00  0.00    +0.226 C 
BRANCH  22  23
ATOM     23  C   UNL     1     -10.925  14.159  64.982  0.00  0.00    +0.120 C 
BRANCH  23  24
ATOM     24  N   UNL     1     -11.447  12.975  65.659  0.00  0.00    -0.270 NA
ATOM     25  C   UNL     1     -10.381  12.013  65.775  0.00  0.00    +0.072 C 
ATOM     26  C   UNL     1     -10.483  10.957  64.709  0.00  0.00    +0.017 C 
ATOM     27  C   UNL     1     -10.703  11.669  63.392  0.00  0.00    +0.003 C 
ATOM     28  C   UNL     1     -12.092  12.278  63.387  0.00  0.00    +0.017 C 
ATOM     29  C   UNL     1     -12.514  12.457  64.819  0.00  0.00    +0.072 C 
ENDBRANCH  23  24
ENDBRANCH  22  23
ENDBRANCH  21  22
ENDBRANCH  19  21
ENDBRANCH  10  19
TORSDOF 6
ENDMDL
MODEL 9
REMARK VINA RESULT:      -7.3      3.343      6.351
REMARK  Name = 
REMARK  6 active torsions:
REMARK  status: ('A' for Active; 'I' for Inactive)
REMARK    1  A    between atoms: C_9  and  C_10
REMARK    2  A    between atoms: C_10  and  O_12
REMARK    3  A    between atoms: O_12  and  C_13
REMARK    4  A    between atoms: C_13  and  C_14
REMARK    5  A    between atoms: C_14  and  N_15
REMARK    6  A    between atoms: C_23  and  C_24
REMARK                            x       y       z     vdW  Elec       q    Type
REMARK                         _______ _______ _______ _____ _____    ______ ____
ROOT
ATOM      1  C   UNL     1     -12.521  15.288  71.264  0.00  0.00    +0.038 C 
ATOM      2  C   UNL     1     -12.069  15.033  69.884  0.00  0.00    +0.052 A 
ATOM      3  C   UNL     1     -12.184  13.727  69.422  0.00  0.00    +0.144 A 
ATOM      4  O   UNL     1     -12.012  13.573  68.122  0.00  0.00    -0.453 OA
ATOM      5  C   UNL     1     -11.477  14.540  67.399  0.00  0.00    +0.154 A 
ATOM      6  C   UNL     1     -10.858  15.640  67.972  0.00  0.00    +0.073 A 
ATOM      7  C   UNL     1      -9.707  16.180  67.426  0.00  0.00    +0.006 A 
ATOM      8  C   UNL     1      -9.337  15.773  66.149  0.00  0.00    +0.001 A 
ATOM      9  C   UNL     1     -10.226  14.984  65.430  0.00  0.00    +0.010 A 
ATOM     10  C   UNL     1     -11.240  14.278  66.056  0.00  0.00    +0.110 A 
ATOM     11  C   UNL     1     -11.276  15.972  69.254  0.00  0.00    +0.197 A 
ATOM     12  O   UNL     1     -10.885  17.035  69.773  0.00  0.00    -0.287 OA
ENDROOT
BRANCH   3  13
ATOM     13  C   UNL     1     -12.046  12.573  70.320  0.00  0.00    +0.034 A 
ATOM     14  C   UNL     1     -11.310  11.487  69.914  0.00  0.00    +0.003 A 
ATOM     15  C   UNL     1     -11.612  10.185  70.294  0.00  0.00    +0.000 A 
ATOM     16  C   UNL     1     -12.738   9.964  71.074  0.00  0.00    +0.000 A 
ATOM     17  C   UNL     1     -13.209  11.065  71.778  0.00  0.00    +0.000 A 
ATOM     18  C   UNL     1     -12.913  12.365  71.385  0.00  0.00    +0.003 A 
ENDBRANCH   3  13
BRANCH  10  19
ATOM     19  C   UNL     1     -12.292  13.584  65.308  0.00  0.00    +0.344 C 
ATOM     20  O   UNL     1     -13.062  14.286  64.587  0.00  0.00    -0.245 OA
BRANCH  19  21
ATOM     21  O   UNL     1     -12.179  12.251  64.979  0.00  0.00    -0.444 OA
BRANCH  21  22
ATOM     22  C   UNL     1     -11.104  11.797  64.177  0.00  0.00    +0.226 C 
BRANCH  22  23
ATOM     23  C   UNL     1     -10.363  10.642  64.821  0.00  0.00    +0.120 C 
BRANCH  23  24
ATOM     24  N   UNL     1     -10.400  10.789  66.273  0.00  0.00    -0.270 NA
ATOM     25  C   UNL     1      -9.156  11.376  66.701  0.00  0.00    +0.072 C 
ATOM     26  C   UNL     1      -8.215  10.331  67.232  0.00  0.00    +0.017 C 
ATOM     27  C   UNL     1      -8.196   9.195  66.232  0.00  0.00    +0.003 C 
ATOM     28  C   UNL     1      -9.534   8.484  66.271  0.00  0.00    +0.017 C 
ATOM     29  C   UNL     1     -10.547   9.450  66.819  0.00  0.00    +0.072 C 
ENDBRANCH  23  24
ENDBRANCH  22  23
ENDBRANCH  21  22
ENDBRANCH  19  21
ENDBRANCH  10  19
TORSDOF 6
ENDMDL
