MODEL 1
REMARK VINA RESULT:      -5.9      0.000      0.000
REMARK  Name = 
REMARK  1 active torsions:
REMARK  status: ('A' for Active; 'I' for Inactive)
REMARK    1  A    between atoms: C_10  and  C_11
REMARK                            x       y       z     vdW  Elec       q    Type
REMARK                         _______ _______ _______ _____ _____    ______ ____
ROOT
ATOM      1  C   UNL     1     -12.514  10.677  70.840  0.00  0.00    -0.000 A 
ATOM      2  C   UNL     1     -13.085  11.516  71.777  0.00  0.00    -0.005 A 
ATOM      3  C   UNL     1     -13.095  12.881  71.513  0.00  0.00    -0.026 A 
ATOM      4  C   UNL     1     -13.467  13.855  72.587  0.00  0.00    +0.026 C 
ATOM      5  C   UNL     1     -13.902  15.133  71.938  0.00  0.00    +0.006 C 
ATOM      6  C   UNL     1     -12.958  15.667  70.912  0.00  0.00    +0.017 C 
ATOM      7  C   UNL     1     -11.590  14.735  71.014  0.00  0.00    +0.131 C 
ATOM      8  C   UNL     1     -12.383  13.429  70.450  0.00  0.00    -0.015 A 
ATOM      9  C   UNL     1     -11.564  12.530  69.780  0.00  0.00    -0.004 A 
ATOM     10  C   UNL     1     -12.050  11.233  69.664  0.00  0.00    -0.000 A 
ENDROOT
BRANCH   7  11
ATOM     11  C   UNL     1     -11.094  15.163  69.518  0.00  0.00    +0.336 C 
ATOM     12  N   UNL     1      -9.675  15.306  69.379  0.00  0.00    -0.030 NA
ATOM     13  C   UNL     1      -9.343  16.578  68.764  0.00  0.00    +0.308 C 
ATOM     14  C   UNL     1     -10.699  17.154  68.497  0.00  0.00    +0.318 C 
ATOM     15  N   UNL     1     -11.637  16.175  68.952  0.00  0.00    -0.061 NA
ENDBRANCH   7  11
TORSDOF 1
ENDMDL
MODEL 2
REMARK VINA RESULT:      -5.5      3.726      5.852
REMARK  Name = 
REMARK  1 active torsions:
REMARK  status: ('A' for Active; 'I' for Inactive)
REMARK    1  A    between atoms: C_10  and  C_11
REMARK                            x       y       z     vdW  Elec       q    Type
REMARK                         _______ _______ _______ _____ _____    ______ ____
ROOT
ATOM      1  C   UNL     1     -10.188  17.497  67.476  0.00  0.00    -0.000 A 
ATOM      2  C   UNL     1     -10.802  16.685  68.411  0.00  0.00    -0.005 A 
ATOM      3  C   UNL     1     -11.047  15.361  68.065  0.00  0.00    -0.026 A 
ATOM      4  C   UNL     1     -11.924  14.506  68.927  0.00  0.00    +0.026 C 
ATOM      5  C   UNL     1     -11.606  13.069  68.650  0.00  0.00    +0.006 C 
ATOM      6  C   UNL     1     -11.600  12.697  67.203  0.00  0.00    +0.017 C 
ATOM      7  C   UNL     1     -12.194  14.012  66.386  0.00  0.00    +0.131 C 
ATOM      8  C   UNL     1     -10.879  14.897  66.764  0.00  0.00    -0.015 A 
ATOM      9  C   UNL     1     -10.592  15.885  65.832  0.00  0.00    -0.004 A 
ATOM     10  C   UNL     1      -9.792  16.930  66.280  0.00  0.00    -0.000 A 
ENDROOT
BRANCH   7  11
ATOM     11  C   UNL     1     -11.541  13.524  64.972  0.00  0.00    +0.336 C 
ATOM     12  N   UNL     1     -12.488  13.341  63.910  0.00  0.00    -0.030 NA
ATOM     13  C   UNL     1     -12.318  12.043  63.286  0.00  0.00    +0.308 C 
ATOM     14  C   UNL     1     -11.145  11.491  64.036  0.00  0.00    +0.318 C 
ATOM     15  N   UNL     1     -10.763  12.507  64.967  0.00  0.00    -0.061 NA
ENDBRANCH   7  11
TORSDOF 1
ENDMDL
MODEL 3
REMARK VINA RESULT:      -5.4      2.048      3.893
REMARK  Name = 
REMARK  1 active torsions:
REMARK  status: ('A' for Active; 'I' for Inactive)
REMARK    1  A    between atoms: C_10  and  C_11
REMARK                            x       y       z     vdW  Elec       q    Type
REMARK                         _______ _______ _______ _____ _____    ______ ____
ROOT
ATOM      1  C   UNL     1     -13.214  14.498  72.860  0.00  0.00    -0.000 A 
ATOM      2  C   UNL     1     -12.573  15.508  72.169  0.00  0.00    -0.005 A 
ATOM      3  C   UNL     1     -12.241  15.281  70.838  0.00  0.00    -0.026 A 
ATOM      4  C   UNL     1     -11.333  16.227  70.115  0.00  0.00    +0.026 C 
ATOM      5  C   UNL     1     -11.558  16.069  68.643  0.00  0.00    +0.006 C 
ATOM      6  C   UNL     1     -11.511  14.660  68.150  0.00  0.00    +0.017 C 
ATOM      7  C   UNL     1     -10.979  13.743  69.426  0.00  0.00    +0.131 C 
ATOM      8  C   UNL     1     -12.353  14.022  70.257  0.00  0.00    -0.015 A 
ATOM      9  C   UNL     1     -12.680  13.004  71.143  0.00  0.00    -0.004 A 
ATOM     10  C   UNL     1     -13.550  13.349  72.171  0.00  0.00    -0.000 A 
ENDROOT
BRANCH   7  11
ATOM     11  C   UNL     1     -11.572  12.365  68.780  0.00  0.00    +0.336 C 
ATOM     12  N   UNL     1     -10.759  11.205  69.003  0.00  0.00    -0.030 NA
ATOM     13  C   UNL     1     -10.514  10.501  67.758  0.00  0.00    +0.308 C 
ATOM     14  C   UNL     1     -11.303  11.317  66.782  0.00  0.00    +0.318 C 
ATOM     15  N   UNL     1     -11.917  12.357  67.547  0.00  0.00    -0.061 NA
ENDBRANCH   7  11
TORSDOF 1
ENDMDL
MODEL 4
REMARK VINA RESULT:      -5.3      3.135      4.377
REMARK  Name = 
REMARK  1 active torsions:
REMARK  status: ('A' for Active; 'I' for Inactive)
REMARK    1  A    between atoms: C_10  and  C_11
REMARK                            x       y       z     vdW  Elec       q    Type
REMARK                         _______ _______ _______ _____ _____    ______ ____
ROOT
ATOM      1  C   UNL     1     -12.015  12.836  64.739  0.00  0.00    -0.000 A 
ATOM      2  C   UNL     1     -11.867  12.527  66.078  0.00  0.00    -0.005 A 
ATOM      3  C   UNL     1     -11.698  13.574  66.976  0.00  0.00    -0.026 A 
ATOM      4  C   UNL     1     -11.285  13.297  68.389  0.00  0.00    +0.026 C 
ATOM      5  C   UNL     1     -11.679  14.467  69.236  0.00  0.00    +0.006 C 
ATOM      6  C   UNL     1     -11.246  15.796  68.709  0.00  0.00    +0.017 C 
ATOM      7  C   UNL     1     -10.241  15.478  67.428  0.00  0.00    +0.131 C 
ATOM      8  C   UNL     1     -11.477  14.880  66.550  0.00  0.00    -0.015 A 
ATOM      9  C   UNL     1     -11.298  15.017  65.180  0.00  0.00    -0.004 A 
ATOM     10  C   UNL     1     -12.056  14.169  64.380  0.00  0.00    -0.000 A 
ENDROOT
BRANCH   7  11
ATOM     11  C   UNL     1     -10.437  16.975  66.806  0.00  0.00    +0.336 C 
ATOM     12  N   UNL     1      -9.282  17.498  66.136  0.00  0.00    -0.030 NA
ATOM     13  C   UNL     1      -8.965  18.829  66.620  0.00  0.00    +0.308 C 
ATOM     14  C   UNL     1     -10.072  19.074  67.598  0.00  0.00    +0.318 C 
ATOM     15  N   UNL     1     -10.894  17.904  67.559  0.00  0.00    -0.061 NA
ENDBRANCH   7  11
TORSDOF 1
ENDMDL
MODEL 5
REMARK VINA RESULT:      -5.3      1.405      3.256
REMARK  Name = 
REMARK  1 active torsions:
REMARK  status: ('A' for Active; 'I' for Inactive)
REMARK    1  A    between atoms: C_10  and  C_11
REMARK                            x       y       z     vdW  Elec       q    Type
REMARK                         _______ _______ _______ _____ _____    ______ ____
ROOT
ATOM      1  C   UNL     1     -13.086  14.542  72.507  0.00  0.00    -0.000 A 
ATOM      2  C   UNL     1     -12.969  13.590  71.513  0.00  0.00    -0.005 A 
ATOM      3  C   UNL     1     -12.048  13.816  70.497  0.00  0.00    -0.026 A 
ATOM      4  C   UNL     1     -12.051  12.956  69.271  0.00  0.00    +0.026 C 
ATOM      5  C   UNL     1     -10.704  13.049  68.622  0.00  0.00    +0.006 C 
ATOM      6  C   UNL     1     -10.208  14.441  68.407  0.00  0.00    +0.017 C 
ATOM      7  C   UNL     1     -11.477  15.445  68.772  0.00  0.00    +0.131 C 
ATOM      8  C   UNL     1     -11.402  15.040  70.348  0.00  0.00    -0.015 A 
ATOM      9  C   UNL     1     -11.857  16.039  71.198  0.00  0.00    -0.004 A 
ATOM     10  C   UNL     1     -12.234  15.629  72.472  0.00  0.00    -0.000 A 
ENDROOT
BRANCH   7  11
ATOM     11  C   UNL     1     -10.496  16.732  68.988  0.00  0.00    +0.336 C 
ATOM     12  N   UNL     1     -10.829  17.875  68.189  0.00  0.00    -0.030 NA
ATOM     13  C   UNL     1      -9.661  18.368  67.483  0.00  0.00    +0.308 C 
ATOM     14  C   UNL     1      -8.589  17.448  67.981  0.00  0.00    +0.318 C 
ATOM     15  N   UNL     1      -9.229  16.566  68.906  0.00  0.00    -0.061 NA
ENDBRANCH   7  11
TORSDOF 1
ENDMDL
MODEL 6
REMARK VINA RESULT:      -5.3      2.418      4.328
REMARK  Name = 
REMARK  1 active torsions:
REMARK  status: ('A' for Active; 'I' for Inactive)
REMARK    1  A    between atoms: C_10  and  C_11
REMARK                            x       y       z     vdW  Elec       q    Type
REMARK                         _______ _______ _______ _____ _____    ______ ____
ROOT
ATOM      1  C   UNL     1     -13.401  14.241  71.761  0.00  0.00    -0.000 A 
ATOM      2  C   UNL     1     -13.541  12.926  72.159  0.00  0.00    -0.005 A 
ATOM      3  C   UNL     1     -12.770  11.963  71.518  0.00  0.00    -0.026 A 
ATOM      4  C   UNL     1     -13.054  10.507  71.726  0.00  0.00    +0.026 C 
ATOM      5  C   UNL     1     -11.822   9.729  71.381  0.00  0.00    +0.006 C 
ATOM      6  C   UNL     1     -11.220  10.065  70.056  0.00  0.00    +0.017 C 
ATOM      7  C   UNL     1     -12.304  11.066  69.298  0.00  0.00    +0.131 C 
ATOM      8  C   UNL     1     -12.029  12.255  70.377  0.00  0.00    -0.015 A 
ATOM      9  C   UNL     1     -12.238  13.528  69.864  0.00  0.00    -0.004 A 
ATOM     10  C   UNL     1     -12.455  14.533  70.799  0.00  0.00    -0.000 A 
ENDROOT
BRANCH   7  11
ATOM     11  C   UNL     1     -11.170  11.643  68.274  0.00  0.00    +0.336 C 
ATOM     12  N   UNL     1     -11.581  11.701  66.902  0.00  0.00    -0.030 NA
ATOM     13  C   UNL     1     -10.598  11.068  66.042  0.00  0.00    +0.308 C 
ATOM     14  C   UNL     1      -9.536  10.678  67.023  0.00  0.00    +0.318 C 
ATOM     15  N   UNL     1      -9.996  11.132  68.299  0.00  0.00    -0.061 NA
ENDBRANCH   7  11
TORSDOF 1
ENDMDL
MODEL 7
REMARK VINA RESULT:      -5.2      2.003      3.787
REMARK  Name = 
REMARK  1 active torsions:
REMARK  status: ('A' for Active; 'I' for Inactive)
REMARK    1  A    between atoms: C_10  and  C_11
REMARK                            x       y       z     vdW  Elec       q    Type
REMARK                         _______ _______ _______ _____ _____    ______ ____
ROOT
ATOM      1  C   UNL     1     -11.415  11.004  67.848  0.00  0.00    -0.000 A 
ATOM      2  C   UNL     1     -11.434  12.189  67.137  0.00  0.00    -0.005 A 
ATOM      3  C   UNL     1     -11.390  13.381  67.851  0.00  0.00    -0.026 A 
ATOM      4  C   UNL     1     -11.659  14.683  67.162  0.00  0.00    +0.026 C 
ATOM      5  C   UNL     1     -11.053  15.784  67.976  0.00  0.00    +0.006 C 
ATOM      6  C   UNL     1     -11.411  15.760  69.426  0.00  0.00    +0.017 C 
ATOM      7  C   UNL     1     -12.586  14.602  69.592  0.00  0.00    +0.131 C 
ATOM      8  C   UNL     1     -11.529  13.414  69.235  0.00  0.00    -0.015 A 
ATOM      9  C   UNL     1     -11.853  12.194  69.812  0.00  0.00    -0.004 A 
ATOM     10  C   UNL     1     -11.284  11.071  69.222  0.00  0.00    -0.000 A 
ENDROOT
BRANCH   7  11
ATOM     11  C   UNL     1     -12.317  14.450  71.195  0.00  0.00    +0.336 C 
ATOM     12  N   UNL     1     -13.504  14.426  71.999  0.00  0.00    -0.030 NA
ATOM     13  C   UNL     1     -13.407  15.379  73.089  0.00  0.00    +0.308 C 
ATOM     14  C   UNL     1     -12.029  15.932  72.894  0.00  0.00    +0.318 C 
ATOM     15  N   UNL     1     -11.489  15.246  71.762  0.00  0.00    -0.061 NA
ENDBRANCH   7  11
TORSDOF 1
ENDMDL
MODEL 8
REMARK VINA RESULT:      -5.2      3.459      5.010
REMARK  Name = 
REMARK  1 active torsions:
REMARK  status: ('A' for Active; 'I' for Inactive)
REMARK    1  A    between atoms: C_10  and  C_11
REMARK                            x       y       z     vdW  Elec       q    Type
REMARK                         _______ _______ _______ _____ _____    ______ ____
ROOT
ATOM      1  C   UNL     1     -11.726  15.742  69.856  0.00  0.00    -0.000 A 
ATOM      2  C   UNL     1     -11.754  14.412  70.230  0.00  0.00    -0.005 A 
ATOM      3  C   UNL     1     -11.431  13.457  69.274  0.00  0.00    -0.026 A 
ATOM      4  C   UNL     1     -11.682  12.005  69.542  0.00  0.00    +0.026 C 
ATOM      5  C   UNL     1     -10.803  11.197  68.640  0.00  0.00    +0.006 C 
ATOM      6  C   UNL     1     -10.859  11.584  67.198  0.00  0.00    +0.017 C 
ATOM      7  C   UNL     1     -12.101  12.674  67.062  0.00  0.00    +0.131 C 
ATOM      8  C   UNL     1     -11.281  13.784  67.929  0.00  0.00    -0.015 A 
ATOM      9  C   UNL     1     -11.619  15.093  67.613  0.00  0.00    -0.004 A 
ATOM     10  C   UNL     1     -11.313  16.049  68.574  0.00  0.00    -0.000 A 
ENDROOT
BRANCH   7  11
ATOM     11  C   UNL     1     -11.532  13.261  65.649  0.00  0.00    +0.336 C 
ATOM     12  N   UNL     1     -12.518  13.388  64.616  0.00  0.00    -0.030 NA
ATOM     13  C   UNL     1     -12.061  12.764  63.389  0.00  0.00    +0.308 C 
ATOM     14  C   UNL     1     -10.688  12.304  63.769  0.00  0.00    +0.318 C 
ATOM     15  N   UNL     1     -10.498  12.718  65.124  0.00  0.00    -0.061 NA
ENDBRANCH   7  11
TORSDOF 1
ENDMDL
MODEL 9
REMARK VINA RESULT:      -5.1      3.502      5.033
REMARK  Name = 
REMARK  1 active torsions:
REMARK  status: ('A' for Active; 'I' for Inactive)
REMARK    1  A    between atoms: C_10  and  C_11
REMARK                            x       y       z     vdW  Elec       q    Type
REMARK                         _______ _______ _______ _____ _____    ______ ____
ROOT
ATOM      1  C   UNL     1     -11.679  12.562  63.500  0.00  0.00    -0.000 A 
ATOM      2  C   UNL     1     -11.207  11.558  64.323  0.00  0.00    -0.005 A 
ATOM      3  C   UNL     1     -11.312  11.735  65.698  0.00  0.00    -0.026 A 
ATOM      4  C   UNL     1     -10.601  10.808  66.635  0.00  0.00    +0.026 C 
ATOM      5  C   UNL     1     -11.273  10.877  67.971  0.00  0.00    +0.006 C 
ATOM      6  C   UNL     1     -11.481  12.259  68.498  0.00  0.00    +0.017 C 
ATOM      7  C   UNL     1     -10.654  13.270  67.476  0.00  0.00    +0.131 C 
ATOM      8  C   UNL     1     -11.687  12.953  66.255  0.00  0.00    -0.015 A 
ATOM      9  C   UNL     1     -11.801  13.994  65.343  0.00  0.00    -0.004 A 
ATOM     10  C   UNL     1     -12.291  13.652  64.088  0.00  0.00    -0.000 A 
ENDROOT
BRANCH   7  11
ATOM     11  C   UNL     1     -11.513  14.575  67.951  0.00  0.00    +0.336 C 
ATOM     12  N   UNL     1     -10.767  15.799  67.986  0.00  0.00    -0.030 NA
ATOM     13  C   UNL     1     -10.937  16.470  69.261  0.00  0.00    +0.308 C 
ATOM     14  C   UNL     1     -11.900  15.562  69.961  0.00  0.00    +0.318 C 
ATOM     15  N   UNL     1     -12.189  14.510  69.037  0.00  0.00    -0.061 NA
ENDBRANCH   7  11
TORSDOF 1
ENDMDL
