MODEL 1
REMARK VINA RESULT:      -4.8      0.000      0.000
REMARK  Name = 
REMARK  1 active torsions:
REMARK  status: ('A' for Active; 'I' for Inactive)
REMARK    1  A    between atoms: C_4  and  C_5
REMARK                            x       y       z     vdW  Elec       q    Type
REMARK                         _______ _______ _______ _____ _____    ______ ____
ROOT
ATOM      1  O   UNL     1     -12.634  14.752  63.857  0.00  0.00    -0.247 OA
ATOM      2  C   UNL     1     -12.192  14.047  64.514  0.00  0.00    +0.351 C 
ATOM      3  C   UNL     1     -11.714  12.795  63.562  0.00  0.00    +0.282 C 
ATOM      4  O   UNL     1     -13.127  12.172  63.642  0.00  0.00    -0.208 OA
ATOM      5  C   UNL     1     -11.147  11.823  64.906  0.00  0.00    +0.227 C 
ATOM      6  O   UNL     1      -9.850  11.471  64.211  0.00  0.00    -0.217 OA
ATOM      7  C   UNL     1     -10.392  13.171  65.676  0.00  0.00    +0.228 C 
ATOM      8  O   UNL     1      -9.564  12.255  66.548  0.00  0.00    -0.216 OA
ATOM      9  C   UNL     1     -11.714  13.246  66.820  0.00  0.00    +0.234 C 
ATOM     10  O   UNL     1     -12.709  13.693  65.714  0.00  0.00    -0.445 OA
ENDROOT
BRANCH   9  11
ATOM     11  C   UNL     1     -11.424  14.823  67.250  0.00  0.00    +0.228 C 
ATOM     12  O   UNL     1     -11.836  15.000  68.523  0.00  0.00    -0.216 OA
ENDBRANCH   9  11
TORSDOF 1
ENDMDL
MODEL 2
REMARK VINA RESULT:      -4.8      1.720      3.327
REMARK  Name = 
REMARK  1 active torsions:
REMARK  status: ('A' for Active; 'I' for Inactive)
REMARK    1  A    between atoms: C_4  and  C_5
REMARK                            x       y       z     vdW  Elec       q    Type
REMARK                         _______ _______ _______ _____ _____    ______ ____
ROOT
ATOM      1  O   UNL     1     -10.629  13.115  68.042  0.00  0.00    -0.247 OA
ATOM      2  C   UNL     1     -10.827  13.363  67.031  0.00  0.00    +0.351 C 
ATOM      3  C   UNL     1     -11.664  12.087  66.419  0.00  0.00    +0.282 C 
ATOM      4  O   UNL     1     -10.343  11.345  66.111  0.00  0.00    -0.208 OA
ATOM      5  C   UNL     1     -11.738  12.749  64.798  0.00  0.00    +0.227 C 
ATOM      6  O   UNL     1     -13.211  12.437  64.649  0.00  0.00    -0.217 OA
ATOM      7  C   UNL     1     -12.111  14.336  65.368  0.00  0.00    +0.228 C 
ATOM      8  O   UNL     1     -12.597  14.752  63.999  0.00  0.00    -0.216 OA
ATOM      9  C   UNL     1     -10.461  14.826  65.053  0.00  0.00    +0.234 C 
ATOM     10  O   UNL     1      -9.921  13.914  66.188  0.00  0.00    -0.445 OA
ENDROOT
BRANCH   9  11
ATOM     11  C   UNL     1     -10.515  16.132  66.075  0.00  0.00    +0.228 C 
ATOM     12  O   UNL     1     -10.238  17.244  65.362  0.00  0.00    -0.216 OA
ENDBRANCH   9  11
TORSDOF 1
ENDMDL
MODEL 3
REMARK VINA RESULT:      -4.8      2.036      4.001
REMARK  Name = 
REMARK  1 active torsions:
REMARK  status: ('A' for Active; 'I' for Inactive)
REMARK    1  A    between atoms: C_4  and  C_5
REMARK                            x       y       z     vdW  Elec       q    Type
REMARK                         _______ _______ _______ _____ _____    ______ ____
ROOT
ATOM      1  O   UNL     1     -11.207  16.673  64.260  0.00  0.00    -0.247 OA
ATOM      2  C   UNL     1     -11.035  15.897  64.961  0.00  0.00    +0.351 C 
ATOM      3  C   UNL     1     -10.422  16.636  66.296  0.00  0.00    +0.282 C 
ATOM      4  O   UNL     1      -8.999  16.581  65.695  0.00  0.00    -0.208 OA
ATOM      5  C   UNL     1     -10.175  15.136  67.169  0.00  0.00    +0.227 C 
ATOM      6  O   UNL     1     -10.789  15.680  68.441  0.00  0.00    -0.217 OA
ATOM      7  C   UNL     1     -11.702  14.497  66.680  0.00  0.00    +0.228 C 
ATOM      8  O   UNL     1     -11.654  13.453  67.771  0.00  0.00    -0.216 OA
ATOM      9  C   UNL     1     -10.890  13.476  65.514  0.00  0.00    +0.234 C 
ATOM     10  O   UNL     1     -10.474  14.703  64.657  0.00  0.00    -0.445 OA
ENDROOT
BRANCH   9  11
ATOM     11  C   UNL     1     -12.245  13.238  64.585  0.00  0.00    +0.228 C 
ATOM     12  O   UNL     1     -11.857  12.780  63.375  0.00  0.00    -0.216 OA
ENDBRANCH   9  11
TORSDOF 1
ENDMDL
MODEL 4
REMARK VINA RESULT:      -4.8      1.965      4.262
REMARK  Name = 
REMARK  1 active torsions:
REMARK  status: ('A' for Active; 'I' for Inactive)
REMARK    1  A    between atoms: C_4  and  C_5
REMARK                            x       y       z     vdW  Elec       q    Type
REMARK                         _______ _______ _______ _____ _____    ______ ____
ROOT
ATOM      1  O   UNL     1      -9.393  12.834  66.541  0.00  0.00    -0.247 OA
ATOM      2  C   UNL     1      -9.992  13.668  66.277  0.00  0.00    +0.351 C 
ATOM      3  C   UNL     1      -9.179  14.987  66.829  0.00  0.00    +0.282 C 
ATOM      4  O   UNL     1      -9.814  14.814  68.228  0.00  0.00    -0.208 OA
ATOM      5  C   UNL     1     -10.426  16.118  66.339  0.00  0.00    +0.227 C 
ATOM      6  O   UNL     1      -9.431  17.072  65.716  0.00  0.00    -0.217 OA
ATOM      7  C   UNL     1     -10.661  15.336  64.818  0.00  0.00    +0.228 C 
ATOM      8  O   UNL     1     -11.374  16.549  64.265  0.00  0.00    -0.216 OA
ATOM      9  C   UNL     1     -12.131  14.611  65.428  0.00  0.00    +0.234 C 
ATOM     10  O   UNL     1     -11.337  13.719  66.421  0.00  0.00    -0.445 OA
ENDROOT
BRANCH   9  11
ATOM     11  C   UNL     1     -12.156  13.396  64.298  0.00  0.00    +0.228 C 
ATOM     12  O   UNL     1     -13.064  12.474  64.683  0.00  0.00    -0.216 OA
ENDBRANCH   9  11
TORSDOF 1
ENDMDL
MODEL 5
REMARK VINA RESULT:      -4.7      1.811      2.547
REMARK  Name = 
REMARK  1 active torsions:
REMARK  status: ('A' for Active; 'I' for Inactive)
REMARK    1  A    between atoms: C_4  and  C_5
REMARK                            x       y       z     vdW  Elec       q    Type
REMARK                         _______ _______ _______ _____ _____    ______ ____
ROOT
ATOM      1  O   UNL     1     -13.323  12.440  64.816  0.00  0.00    -0.247 OA
ATOM      2  C   UNL     1     -12.424  12.820  65.229  0.00  0.00    +0.351 C 
ATOM      3  C   UNL     1     -11.833  13.869  64.109  0.00  0.00    +0.282 C 
ATOM      4  O   UNL     1     -11.145  12.707  63.356  0.00  0.00    -0.208 OA
ATOM      5  C   UNL     1     -10.376  14.218  65.019  0.00  0.00    +0.227 C 
ATOM      6  O   UNL     1     -10.505  15.711  64.812  0.00  0.00    -0.217 OA
ATOM      7  C   UNL     1     -11.231  14.331  66.515  0.00  0.00    +0.228 C 
ATOM      8  O   UNL     1     -10.072  15.051  67.164  0.00  0.00    -0.216 OA
ATOM      9  C   UNL     1     -10.640  12.745  66.961  0.00  0.00    +0.234 C 
ATOM     10  O   UNL     1     -11.492  12.063  65.856  0.00  0.00    -0.445 OA
ENDROOT
BRANCH   9  11
ATOM     11  C   UNL     1     -11.825  12.479  68.093  0.00  0.00    +0.228 C 
ATOM     12  O   UNL     1     -12.080  11.154  68.139  0.00  0.00    -0.216 OA
ENDBRANCH   9  11
TORSDOF 1
ENDMDL
MODEL 6
REMARK VINA RESULT:      -4.6      5.184      6.830
REMARK  Name = 
REMARK  1 active torsions:
REMARK  status: ('A' for Active; 'I' for Inactive)
REMARK    1  A    between atoms: C_4  and  C_5
REMARK                            x       y       z     vdW  Elec       q    Type
REMARK                         _______ _______ _______ _____ _____    ______ ____
ROOT
ATOM      1  O   UNL     1      -7.733  17.155  65.746  0.00  0.00    -0.247 OA
ATOM      2  C   UNL     1      -8.341  17.813  66.311  0.00  0.00    +0.351 C 
ATOM      3  C   UNL     1      -9.708  16.966  66.654  0.00  0.00    +0.282 C 
ATOM      4  O   UNL     1     -10.320  17.369  65.293  0.00  0.00    -0.208 OA
ATOM      5  C   UNL     1     -10.488  18.309  67.468  0.00  0.00    +0.227 C 
ATOM      6  O   UNL     1     -10.925  17.453  68.637  0.00  0.00    -0.217 OA
ATOM      7  C   UNL     1      -9.045  18.753  68.306  0.00  0.00    +0.228 C 
ATOM      8  O   UNL     1      -9.833  19.582  69.295  0.00  0.00    -0.216 OA
ATOM      9  C   UNL     1      -8.823  20.087  67.196  0.00  0.00    +0.234 C 
ATOM     10  O   UNL     1      -8.533  19.120  66.016  0.00  0.00    -0.445 OA
ENDROOT
BRANCH   9  11
ATOM     11  C   UNL     1      -7.201  20.250  67.512  0.00  0.00    +0.228 C 
ATOM     12  O   UNL     1      -6.835  21.516  67.218  0.00  0.00    -0.216 OA
ENDBRANCH   9  11
TORSDOF 1
ENDMDL
MODEL 7
REMARK VINA RESULT:      -4.6      1.496      4.319
REMARK  Name = 
REMARK  1 active torsions:
REMARK  status: ('A' for Active; 'I' for Inactive)
REMARK    1  A    between atoms: C_4  and  C_5
REMARK                            x       y       z     vdW  Elec       q    Type
REMARK                         _______ _______ _______ _____ _____    ______ ____
ROOT
ATOM      1  O   UNL     1      -9.464  12.250  66.558  0.00  0.00    -0.247 OA
ATOM      2  C   UNL     1     -10.260  12.245  65.858  0.00  0.00    +0.351 C 
ATOM      3  C   UNL     1     -11.488  13.066  66.581  0.00  0.00    +0.282 C 
ATOM      4  O   UNL     1     -11.948  11.777  67.302  0.00  0.00    -0.208 OA
ATOM      5  C   UNL     1     -12.613  12.798  65.263  0.00  0.00    +0.227 C 
ATOM      6  O   UNL     1     -13.061  14.243  65.244  0.00  0.00    -0.217 OA
ATOM      7  C   UNL     1     -11.419  13.132  64.061  0.00  0.00    +0.228 C 
ATOM      8  O   UNL     1     -12.485  13.334  63.008  0.00  0.00    -0.216 OA
ATOM      9  C   UNL     1     -11.274  11.417  63.743  0.00  0.00    +0.234 C 
ATOM     10  O   UNL     1     -10.637  11.163  65.137  0.00  0.00    -0.445 OA
ENDROOT
BRANCH   9  11
ATOM     11  C   UNL     1      -9.776  11.542  63.039  0.00  0.00    +0.228 C 
ATOM     12  O   UNL     1      -9.474  10.358  62.465  0.00  0.00    -0.216 OA
ENDBRANCH   9  11
TORSDOF 1
ENDMDL
MODEL 8
REMARK VINA RESULT:      -4.6      1.567      3.678
REMARK  Name = 
REMARK  1 active torsions:
REMARK  status: ('A' for Active; 'I' for Inactive)
REMARK    1  A    between atoms: C_4  and  C_5
REMARK                            x       y       z     vdW  Elec       q    Type
REMARK                         _______ _______ _______ _____ _____    ______ ____
ROOT
ATOM      1  O   UNL     1     -10.690  11.077  65.503  0.00  0.00    -0.247 OA
ATOM      2  C   UNL     1     -11.109  11.931  65.970  0.00  0.00    +0.351 C 
ATOM      3  C   UNL     1     -10.787  11.760  67.573  0.00  0.00    +0.282 C 
ATOM      4  O   UNL     1     -12.052  10.887  67.751  0.00  0.00    -0.208 OA
ATOM      5  C   UNL     1     -11.655  13.212  68.032  0.00  0.00    +0.227 C 
ATOM      6  O   UNL     1     -10.539  13.692  68.935  0.00  0.00    -0.217 OA
ATOM      7  C   UNL     1     -11.008  14.121  66.715  0.00  0.00    +0.228 C 
ATOM      8  O   UNL     1     -11.395  15.424  67.377  0.00  0.00    -0.216 OA
ATOM      9  C   UNL     1     -12.534  13.968  65.872  0.00  0.00    +0.234 C 
ATOM     10  O   UNL     1     -12.329  12.441  65.679  0.00  0.00    -0.445 OA
ENDROOT
BRANCH   9  11
ATOM     11  C   UNL     1     -11.889  14.283  64.376  0.00  0.00    +0.228 C 
ATOM     12  O   UNL     1     -12.716  13.773  63.439  0.00  0.00    -0.216 OA
ENDBRANCH   9  11
TORSDOF 1
ENDMDL
MODEL 9
REMARK VINA RESULT:      -4.5      1.099      2.878
REMARK  Name = 
REMARK  1 active torsions:
REMARK  status: ('A' for Active; 'I' for Inactive)
REMARK    1  A    between atoms: C_4  and  C_5
REMARK                            x       y       z     vdW  Elec       q    Type
REMARK                         _______ _______ _______ _____ _____    ______ ____
ROOT
ATOM      1  O   UNL     1      -9.564  11.249  65.699  0.00  0.00    -0.247 OA
ATOM      2  C   UNL     1     -10.236  12.008  65.391  0.00  0.00    +0.351 C 
ATOM      3  C   UNL     1     -11.003  11.407  64.066  0.00  0.00    +0.282 C 
ATOM      4  O   UNL     1      -9.848  11.887  63.158  0.00  0.00    -0.208 OA
ATOM      5  C   UNL     1     -11.919  12.873  63.774  0.00  0.00    +0.227 C 
ATOM      6  O   UNL     1     -13.214  12.120  63.565  0.00  0.00    -0.217 OA
ATOM      7  C   UNL     1     -12.286  13.082  65.449  0.00  0.00    +0.228 C 
ATOM      8  O   UNL     1     -13.404  14.046  65.119  0.00  0.00    -0.216 OA
ATOM      9  C   UNL     1     -11.078  14.344  65.546  0.00  0.00    +0.234 C 
ATOM     10  O   UNL     1      -9.926  13.325  65.329  0.00  0.00    -0.445 OA
ENDROOT
BRANCH   9  11
ATOM     11  C   UNL     1     -10.912  14.237  67.194  0.00  0.00    +0.228 C 
ATOM     12  O   UNL     1     -11.228  15.434  67.733  0.00  0.00    -0.216 OA
ENDBRANCH   9  11
TORSDOF 1
ENDMDL
