MODEL 1
REMARK VINA RESULT:      -8.0      0.000      0.000
REMARK  Name = 
REMARK  7 active torsions:
REMARK  status: ('A' for Active; 'I' for Inactive)
REMARK    1  A    between atoms: C_2  and  C_3
REMARK    2  A    between atoms: C_3  and  C_4
REMARK    3  A    between atoms: C_4  and  C_5
REMARK    4  A    between atoms: N_14  and  C_15
REMARK    5  A    between atoms: C_15  and  C_16
REMARK    6  A    between atoms: C_19  and  C_20
REMARK    7  A    between atoms: C_25  and  C_26
REMARK                            x       y       z     vdW  Elec       q    Type
REMARK                         _______ _______ _______ _____ _____    ______ ____
ROOT
ATOM      1  C   UNL     1     -10.010  16.995  68.211  0.00  0.00    +0.025 A 
ATOM      2  C   UNL     1      -8.847  16.442  68.665  0.00  0.00    -0.000 A 
ATOM      3  C   UNL     1      -7.717  17.247  68.708  0.00  0.00    -0.000 A 
ATOM      4  C   UNL     1      -7.781  18.633  68.678  0.00  0.00    -0.001 A 
ATOM      5  C   UNL     1      -9.063  19.161  68.587  0.00  0.00    -0.000 A 
ATOM      6  C   UNL     1     -10.184  18.351  68.457  0.00  0.00    -0.000 A 
ENDROOT
BRANCH   4   7
ATOM      7  C   UNL     1      -6.621  19.315  68.088  0.00  0.00    -0.006 A 
ATOM      8  C   UNL     1      -5.925  20.211  68.854  0.00  0.00    -0.015 A 
ATOM      9  C   UNL     1      -5.250  21.219  68.199  0.00  0.00    -0.007 A 
ATOM     10  C   UNL     1      -5.338  21.383  66.822  0.00  0.00    -0.001 A 
ATOM     11  C   UNL     1      -5.615  20.225  66.106  0.00  0.00    -0.000 A 
ATOM     12  C   UNL     1      -6.336  19.245  66.730  0.00  0.00    -0.001 A 
BRANCH   8  13
ATOM     13  C   UNL     1      -5.711  19.900  70.272  0.00  0.00    +0.044 A 
ATOM     14  N   UNL     1      -5.228  18.750  70.803  0.00  0.00    -0.289 NA
ATOM     15  N   UNL     1      -4.832  19.002  72.049  0.00  0.00    -0.218 NA
ATOM     16  N   UNL     1      -4.486  20.288  72.053  0.00  0.00    -0.218 NA
ATOM     17  N   UNL     1      -5.309  20.841  71.161  0.00  0.00    -0.289 NA
ENDBRANCH   8  13
ENDBRANCH   4   7
BRANCH   1  18
ATOM     18  C   UNL     1     -11.137  16.278  67.607  0.00  0.00    +0.237 C 
BRANCH  18  20
ATOM     19  C   UNL     1     -11.035  13.784  67.319  0.00  0.00    +0.301 C 
ATOM     20  N   UNL     1     -10.737  15.104  66.850  0.00  0.00    -0.137 N 
ATOM     21  C   UNL     1     -10.632  14.948  65.430  0.00  0.00    +0.358 C 
ATOM     22  O   UNL     1     -10.403  15.901  64.661  0.00  0.00    -0.242 OA
ATOM     23  C   UNL     1     -11.148  13.611  65.068  0.00  0.00    +0.264 C 
ATOM     24  C   UNL     1     -10.179  12.799  64.252  0.00  0.00    +0.061 C 
ATOM     25  C   UNL     1     -11.065  11.690  63.727  0.00  0.00    +0.005 C 
ATOM     26  C   UNL     1     -12.474  12.237  63.703  0.00  0.00    +0.005 C 
ATOM     27  C   UNL     1     -12.388  13.657  64.223  0.00  0.00    +0.061 C 
ATOM     28  N   UNL     1     -11.350  13.006  66.356  0.00  0.00    -0.067 NA
BRANCH  19  29
ATOM     29  C   UNL     1     -10.852  13.295  68.721  0.00  0.00    +0.117 C 
BRANCH  29  30
ATOM     30  C   UNL     1     -12.145  13.580  69.477  0.00  0.00    +0.013 C 
BRANCH  30  32
ATOM     31  C   UNL     1     -12.853  15.461  70.846  0.00  0.00    +0.000 C 
ATOM     32  C   UNL     1     -11.746  14.461  70.654  0.00  0.00    +0.001 C 
ENDBRANCH  30  32
ENDBRANCH  29  30
ENDBRANCH  19  29
ENDBRANCH  18  20
ENDBRANCH   1  18
TORSDOF 7
ENDMDL
MODEL 2
REMARK VINA RESULT:      -8.0      1.462      1.674
REMARK  Name = 
REMARK  7 active torsions:
REMARK  status: ('A' for Active; 'I' for Inactive)
REMARK    1  A    between atoms: C_2  and  C_3
REMARK    2  A    between atoms: C_3  and  C_4
REMARK    3  A    between atoms: C_4  and  C_5
REMARK    4  A    between atoms: N_14  and  C_15
REMARK    5  A    between atoms: C_15  and  C_16
REMARK    6  A    between atoms: C_19  and  C_20
REMARK    7  A    between atoms: C_25  and  C_26
REMARK                            x       y       z     vdW  Elec       q    Type
REMARK                         _______ _______ _______ _____ _____    ______ ____
ROOT
ATOM      1  C   UNL     1      -9.060  17.939  68.302  0.00  0.00    +0.025 A 
ATOM      2  C   UNL     1      -8.131  17.132  68.895  0.00  0.00    -0.000 A 
ATOM      3  C   UNL     1      -6.824  17.595  68.975  0.00  0.00    -0.000 A 
ATOM      4  C   UNL     1      -6.494  18.937  68.836  0.00  0.00    -0.001 A 
ATOM      5  C   UNL     1      -7.567  19.786  68.597  0.00  0.00    -0.000 A 
ATOM      6  C   UNL     1      -8.860  19.307  68.430  0.00  0.00    -0.000 A 
ENDROOT
BRANCH   4   7
ATOM      7  C   UNL     1      -5.154  19.213  68.300  0.00  0.00    -0.006 A 
ATOM      8  C   UNL     1      -4.398  20.191  68.889  0.00  0.00    -0.015 A 
ATOM      9  C   UNL     1      -3.457  20.824  68.107  0.00  0.00    -0.007 A 
ATOM     10  C   UNL     1      -3.330  20.553  66.750  0.00  0.00    -0.001 A 
ATOM     11  C   UNL     1      -3.737  19.283  66.362  0.00  0.00    -0.000 A 
ATOM     12  C   UNL     1      -4.715  18.672  67.097  0.00  0.00    -0.001 A 
BRANCH   8  13
ATOM     13  C   UNL     1      -4.437  20.319  70.350  0.00  0.00    +0.044 A 
ATOM     14  N   UNL     1      -3.580  19.779  71.251  0.00  0.00    -0.289 NA
ATOM     15  N   UNL     1      -3.724  20.431  72.404  0.00  0.00    -0.218 NA
ATOM     16  N   UNL     1      -4.127  21.654  72.066  0.00  0.00    -0.218 NA
ATOM     17  N   UNL     1      -4.847  21.459  70.960  0.00  0.00    -0.289 NA
ENDBRANCH   8  13
ENDBRANCH   4   7
BRANCH   1  18
ATOM     18  C   UNL     1     -10.304  17.506  67.658  0.00  0.00    +0.237 C 
BRANCH  18  20
ATOM     19  C   UNL     1     -11.561  15.387  68.154  0.00  0.00    +0.301 C 
ATOM     20  N   UNL     1     -10.439  16.061  67.574  0.00  0.00    -0.137 N 
ATOM     21  C   UNL     1     -10.018  15.183  66.523  0.00  0.00    +0.358 C 
ATOM     22  O   UNL     1      -9.066  15.447  65.764  0.00  0.00    -0.242 OA
ATOM     23  C   UNL     1     -11.064  14.159  66.323  0.00  0.00    +0.264 C 
ATOM     24  C   UNL     1     -10.541  12.750  66.389  0.00  0.00    +0.061 C 
ATOM     25  C   UNL     1     -11.690  11.961  65.802  0.00  0.00    +0.005 C 
ATOM     26  C   UNL     1     -12.447  12.907  64.897  0.00  0.00    +0.005 C 
ATOM     27  C   UNL     1     -11.728  14.238  64.978  0.00  0.00    +0.061 C 
ATOM     28  N   UNL     1     -11.954  14.417  67.421  0.00  0.00    -0.067 NA
BRANCH  19  29
ATOM     29  C   UNL     1     -12.126  15.647  69.514  0.00  0.00    +0.117 C 
BRANCH  29  30
ATOM     30  C   UNL     1     -11.056  15.267  70.532  0.00  0.00    +0.013 C 
BRANCH  30  32
ATOM     31  C   UNL     1     -13.159  15.541  71.722  0.00  0.00    +0.000 C 
ATOM     32  C   UNL     1     -11.665  15.561  71.897  0.00  0.00    +0.001 C 
ENDBRANCH  30  32
ENDBRANCH  29  30
ENDBRANCH  19  29
ENDBRANCH  18  20
ENDBRANCH   1  18
TORSDOF 7
ENDMDL
MODEL 3
REMARK VINA RESULT:      -7.7      3.804      9.038
REMARK  Name = 
REMARK  7 active torsions:
REMARK  status: ('A' for Active; 'I' for Inactive)
REMARK    1  A    between atoms: C_2  and  C_3
REMARK    2  A    between atoms: C_3  and  C_4
REMARK    3  A    between atoms: C_4  and  C_5
REMARK    4  A    between atoms: N_14  and  C_15
REMARK    5  A    between atoms: C_15  and  C_16
REMARK    6  A    between atoms: C_19  and  C_20
REMARK    7  A    between atoms: C_25  and  C_26
REMARK                            x       y       z     vdW  Elec       q    Type
REMARK                         _______ _______ _______ _____ _____    ______ ____
ROOT
ATOM      1  C   UNL     1     -11.819  13.743  68.531  0.00  0.00    +0.025 A 
ATOM      2  C   UNL     1     -11.909  12.665  67.698  0.00  0.00    -0.000 A 
ATOM      3  C   UNL     1     -11.674  11.406  68.235  0.00  0.00    -0.000 A 
ATOM      4  C   UNL     1     -11.727  11.151  69.599  0.00  0.00    -0.001 A 
ATOM      5  C   UNL     1     -12.019  12.253  70.393  0.00  0.00    -0.000 A 
ATOM      6  C   UNL     1     -12.165  13.527  69.858  0.00  0.00    -0.000 A 
ENDROOT
BRANCH   4   7
ATOM      7  C   UNL     1     -10.873  10.057  70.078  0.00  0.00    -0.006 A 
ATOM      8  C   UNL     1     -11.288   9.321  71.156  0.00  0.00    -0.015 A 
ATOM      9  C   UNL     1     -10.317   8.723  71.929  0.00  0.00    -0.007 A 
ATOM     10  C   UNL     1      -8.963   8.923  71.689  0.00  0.00    -0.001 A 
ATOM     11  C   UNL     1      -8.637   9.231  70.374  0.00  0.00    -0.000 A 
ATOM     12  C   UNL     1      -9.574   9.879  69.617  0.00  0.00    -0.001 A 
BRANCH   8  13
ATOM     13  C   UNL     1     -12.713   8.989  71.268  0.00  0.00    +0.044 A 
ATOM     14  N   UNL     1     -13.290   7.770  71.134  0.00  0.00    -0.289 NA
ATOM     15  N   UNL     1     -14.505   7.824  71.678  0.00  0.00    -0.218 NA
ATOM     16  N   UNL     1     -14.422   8.756  72.626  0.00  0.00    -0.218 NA
ATOM     17  N   UNL     1     -13.531   9.622  72.144  0.00  0.00    -0.289 NA
ENDBRANCH   8  13
ENDBRANCH   4   7
BRANCH   1  18
ATOM     18  C   UNL     1     -11.517  15.124  68.139  0.00  0.00    +0.237 C 
BRANCH  18  20
ATOM     19  C   UNL     1     -10.051  15.801  66.214  0.00  0.00    +0.301 C 
ATOM     20  N   UNL     1     -10.203  15.279  67.539  0.00  0.00    -0.137 N 
ATOM     21  C   UNL     1      -8.960  15.598  68.177  0.00  0.00    +0.358 C 
ATOM     22  O   UNL     1      -8.722  15.320  69.368  0.00  0.00    -0.242 OA
ATOM     23  C   UNL     1      -8.221  16.542  67.314  0.00  0.00    +0.264 C 
ATOM     24  C   UNL     1      -6.823  16.088  66.993  0.00  0.00    +0.061 C 
ATOM     25  C   UNL     1      -6.201  17.353  66.444  0.00  0.00    +0.005 C 
ATOM     26  C   UNL     1      -6.966  18.509  67.048  0.00  0.00    +0.005 C 
ATOM     27  C   UNL     1      -8.030  17.896  67.934  0.00  0.00    +0.061 C 
ATOM     28  N   UNL     1      -9.029  16.562  66.126  0.00  0.00    -0.067 NA
BRANCH  19  29
ATOM     29  C   UNL     1     -10.862  15.403  65.022  0.00  0.00    +0.117 C 
BRANCH  29  30
ATOM     30  C   UNL     1     -10.543  13.943  64.720  0.00  0.00    +0.013 C 
BRANCH  30  32
ATOM     31  C   UNL     1     -11.501  11.967  63.676  0.00  0.00    +0.000 C 
ATOM     32  C   UNL     1     -11.836  13.343  64.182  0.00  0.00    +0.001 C 
ENDBRANCH  30  32
ENDBRANCH  29  30
ENDBRANCH  19  29
ENDBRANCH  18  20
ENDBRANCH   1  18
TORSDOF 7
ENDMDL
MODEL 4
REMARK VINA RESULT:      -7.7      2.769      8.184
REMARK  Name = 
REMARK  7 active torsions:
REMARK  status: ('A' for Active; 'I' for Inactive)
REMARK    1  A    between atoms: C_2  and  C_3
REMARK    2  A    between atoms: C_3  and  C_4
REMARK    3  A    between atoms: C_4  and  C_5
REMARK    4  A    between atoms: N_14  and  C_15
REMARK    5  A    between atoms: C_15  and  C_16
REMARK    6  A    between atoms: C_19  and  C_20
REMARK    7  A    between atoms: C_25  and  C_26
REMARK                            x       y       z     vdW  Elec       q    Type
REMARK                         _______ _______ _______ _____ _____    ______ ____
ROOT
ATOM      1  C   UNL     1      -7.529  16.610  66.632  0.00  0.00    +0.025 A 
ATOM      2  C   UNL     1      -7.071  15.748  67.586  0.00  0.00    -0.000 A 
ATOM      3  C   UNL     1      -8.007  15.089  68.372  0.00  0.00    -0.000 A 
ATOM      4  C   UNL     1      -9.341  14.968  68.007  0.00  0.00    -0.001 A 
ATOM      5  C   UNL     1      -9.678  15.568  66.800  0.00  0.00    -0.000 A 
ATOM      6  C   UNL     1      -8.757  16.301  66.062  0.00  0.00    -0.000 A 
ENDROOT
BRANCH   4   7
ATOM      7  C   UNL     1     -10.301  14.868  69.115  0.00  0.00    -0.006 A 
ATOM      8  C   UNL     1     -11.308  13.944  69.031  0.00  0.00    -0.015 A 
ATOM      9  C   UNL     1     -12.470  14.206  69.723  0.00  0.00    -0.007 A 
ATOM     10  C   UNL     1     -12.660  15.399  70.409  0.00  0.00    -0.001 A 
ATOM     11  C   UNL     1     -11.496  16.016  70.852  0.00  0.00    -0.000 A 
ATOM     12  C   UNL     1     -10.350  15.809  70.136  0.00  0.00    -0.001 A 
BRANCH   8  13
ATOM     13  C   UNL     1     -11.005  12.630  68.451  0.00  0.00    +0.044 A 
ATOM     14  N   UNL     1     -10.578  11.519  69.100  0.00  0.00    -0.289 NA
ATOM     15  N   UNL     1     -10.790  10.469  68.308  0.00  0.00    -0.218 NA
ATOM     16  N   UNL     1     -11.834  10.806  67.552  0.00  0.00    -0.218 NA
ATOM     17  N   UNL     1     -11.709  12.126  67.408  0.00  0.00    -0.289 NA
ENDBRANCH   8  13
ENDBRANCH   4   7
BRANCH   1  18
ATOM     18  C   UNL     1      -6.801  17.750  66.067  0.00  0.00    +0.237 C 
BRANCH  18  20
ATOM     19  C   UNL     1      -7.335  19.374  67.908  0.00  0.00    +0.301 C 
ATOM     20  N   UNL     1      -6.381  18.720  67.065  0.00  0.00    -0.137 N 
ATOM     21  C   UNL     1      -5.170  18.748  67.830  0.00  0.00    +0.358 C 
ATOM     22  O   UNL     1      -4.106  18.241  67.428  0.00  0.00    -0.242 OA
ATOM     23  C   UNL     1      -5.500  19.159  69.210  0.00  0.00    +0.264 C 
ATOM     24  C   UNL     1      -4.687  20.329  69.695  0.00  0.00    +0.061 C 
ATOM     25  C   UNL     1      -4.946  20.294  71.185  0.00  0.00    +0.005 C 
ATOM     26  C   UNL     1      -5.295  18.864  71.530  0.00  0.00    +0.005 C 
ATOM     27  C   UNL     1      -5.241  18.088  70.231  0.00  0.00    +0.061 C 
ATOM     28  N   UNL     1      -6.885  19.522  69.095  0.00  0.00    -0.067 NA
BRANCH  19  29
ATOM     29  C   UNL     1      -8.630  19.973  67.459  0.00  0.00    +0.117 C 
BRANCH  29  30
ATOM     30  C   UNL     1      -9.741  19.319  68.272  0.00  0.00    +0.013 C 
BRANCH  30  32
ATOM     31  C   UNL     1     -10.443  19.625  65.963  0.00  0.00    +0.000 C 
ATOM     32  C   UNL     1     -10.858  19.024  67.278  0.00  0.00    +0.001 C 
ENDBRANCH  30  32
ENDBRANCH  29  30
ENDBRANCH  19  29
ENDBRANCH  18  20
ENDBRANCH   1  18
TORSDOF 7
ENDMDL
MODEL 5
REMARK VINA RESULT:      -7.6      3.086      8.155
REMARK  Name = 
REMARK  7 active torsions:
REMARK  status: ('A' for Active; 'I' for Inactive)
REMARK    1  A    between atoms: C_2  and  C_3
REMARK    2  A    between atoms: C_3  and  C_4
REMARK    3  A    between atoms: C_4  and  C_5
REMARK    4  A    between atoms: N_14  and  C_15
REMARK    5  A    between atoms: C_15  and  C_16
REMARK    6  A    between atoms: C_19  and  C_20
REMARK    7  A    between atoms: C_25  and  C_26
REMARK                            x       y       z     vdW  Elec       q    Type
REMARK                         _______ _______ _______ _____ _____    ______ ____
ROOT
ATOM      1  C   UNL     1      -8.988  16.163  67.452  0.00  0.00    +0.025 A 
ATOM      2  C   UNL     1     -10.314  16.370  67.196  0.00  0.00    -0.000 A 
ATOM      3  C   UNL     1     -11.238  15.605  67.895  0.00  0.00    -0.000 A 
ATOM      4  C   UNL     1     -10.923  14.937  69.071  0.00  0.00    -0.001 A 
ATOM      5  C   UNL     1      -9.607  15.077  69.493  0.00  0.00    -0.000 A 
ATOM      6  C   UNL     1      -8.664  15.769  68.743  0.00  0.00    -0.000 A 
ENDROOT
BRANCH   4   7
ATOM      7  C   UNL     1     -11.696  13.717  69.340  0.00  0.00    -0.006 A 
ATOM      8  C   UNL     1     -12.261  13.556  70.577  0.00  0.00    -0.015 A 
ATOM      9  C   UNL     1     -12.475  12.266  71.015  0.00  0.00    -0.007 A 
ATOM     10  C   UNL     1     -12.057  11.165  70.278  0.00  0.00    -0.001 A 
ATOM     11  C   UNL     1     -11.969  11.371  68.907  0.00  0.00    -0.000 A 
ATOM     12  C   UNL     1     -11.697  12.637  68.466  0.00  0.00    -0.001 A 
BRANCH   8  13
ATOM     13  C   UNL     1     -12.846  14.729  71.237  0.00  0.00    +0.044 A 
ATOM     14  N   UNL     1     -14.160  15.030  71.374  0.00  0.00    -0.289 NA
ATOM     15  N   UNL     1     -14.279  15.940  72.340  0.00  0.00    -0.218 NA
ATOM     16  N   UNL     1     -13.247  15.723  73.153  0.00  0.00    -0.218 NA
ATOM     17  N   UNL     1     -12.286  15.286  72.339  0.00  0.00    -0.289 NA
ENDBRANCH   8  13
ENDBRANCH   4   7
BRANCH   1  18
ATOM     18  C   UNL     1      -7.873  16.435  66.540  0.00  0.00    +0.237 C 
BRANCH  18  20
ATOM     19  C   UNL     1      -7.368  18.699  67.507  0.00  0.00    +0.301 C 
ATOM     20  N   UNL     1      -6.929  17.413  67.056  0.00  0.00    -0.137 N 
ATOM     21  C   UNL     1      -5.718  17.187  67.788  0.00  0.00    +0.358 C 
ATOM     22  O   UNL     1      -5.050  16.141  67.681  0.00  0.00    -0.242 OA
ATOM     23  C   UNL     1      -5.622  18.205  68.855  0.00  0.00    +0.264 C 
ATOM     24  C   UNL     1      -4.323  18.965  68.838  0.00  0.00    +0.061 C 
ATOM     25  C   UNL     1      -4.336  19.637  70.193  0.00  0.00    +0.005 C 
ATOM     26  C   UNL     1      -5.202  18.783  71.091  0.00  0.00    +0.005 C 
ATOM     27  C   UNL     1      -5.688  17.629  70.240  0.00  0.00    +0.061 C 
ATOM     28  N   UNL     1      -6.719  19.078  68.540  0.00  0.00    -0.067 NA
BRANCH  19  29
ATOM     29  C   UNL     1      -8.336  19.588  66.795  0.00  0.00    +0.117 C 
BRANCH  29  30
ATOM     30  C   UNL     1      -9.343  20.086  67.826  0.00  0.00    +0.013 C 
BRANCH  30  32
ATOM     31  C   UNL     1     -10.562  19.713  65.755  0.00  0.00    +0.000 C 
ATOM     32  C   UNL     1     -10.715  19.761  67.250  0.00  0.00    +0.001 C 
ENDBRANCH  30  32
ENDBRANCH  29  30
ENDBRANCH  19  29
ENDBRANCH  18  20
ENDBRANCH   1  18
TORSDOF 7
ENDMDL
MODEL 6
REMARK VINA RESULT:      -7.6      5.970      9.829
REMARK  Name = 
REMARK  7 active torsions:
REMARK  status: ('A' for Active; 'I' for Inactive)
REMARK    1  A    between atoms: C_2  and  C_3
REMARK    2  A    between atoms: C_3  and  C_4
REMARK    3  A    between atoms: C_4  and  C_5
REMARK    4  A    between atoms: N_14  and  C_15
REMARK    5  A    between atoms: C_15  and  C_16
REMARK    6  A    between atoms: C_19  and  C_20
REMARK    7  A    between atoms: C_25  and  C_26
REMARK                            x       y       z     vdW  Elec       q    Type
REMARK                         _______ _______ _______ _____ _____    ______ ____
ROOT
ATOM      1  C   UNL     1     -10.216   9.845  70.009  0.00  0.00    +0.025 A 
ATOM      2  C   UNL     1     -11.562   9.965  69.813  0.00  0.00    -0.000 A 
ATOM      3  C   UNL     1     -12.016  11.027  69.043  0.00  0.00    -0.000 A 
ATOM      4  C   UNL     1     -11.192  11.731  68.176  0.00  0.00    -0.001 A 
ATOM      5  C   UNL     1      -9.870  11.305  68.143  0.00  0.00    -0.000 A 
ATOM      6  C   UNL     1      -9.401  10.300  68.980  0.00  0.00    -0.000 A 
ENDROOT
BRANCH   4   7
ATOM      7  C   UNL     1     -11.557  13.136  67.945  0.00  0.00    -0.006 A 
ATOM      8  C   UNL     1     -11.452  13.643  66.678  0.00  0.00    -0.015 A 
ATOM      9  C   UNL     1     -11.240  14.999  66.552  0.00  0.00    -0.007 A 
ATOM     10  C   UNL     1     -11.049  15.816  67.660  0.00  0.00    -0.001 A 
ATOM     11  C   UNL     1     -11.640  15.365  68.833  0.00  0.00    -0.000 A 
ATOM     12  C   UNL     1     -11.799  14.016  68.992  0.00  0.00    -0.001 A 
BRANCH   8  13
ATOM     13  C   UNL     1     -11.834  12.788  65.549  0.00  0.00    +0.044 A 
ATOM     14  N   UNL     1     -13.026  12.754  64.904  0.00  0.00    -0.289 NA
ATOM     15  N   UNL     1     -12.847  12.148  63.731  0.00  0.00    -0.218 NA
ATOM     16  N   UNL     1     -11.578  12.388  63.405  0.00  0.00    -0.218 NA
ATOM     17  N   UNL     1     -10.951  12.440  64.580  0.00  0.00    -0.289 NA
ENDBRANCH   8  13
ENDBRANCH   4   7
BRANCH   1  18
ATOM     18  C   UNL     1      -9.556   9.176  71.134  0.00  0.00    +0.237 C 
BRANCH  18  20
ATOM     19  C   UNL     1      -9.281   6.679  71.131  0.00  0.00    +0.301 C 
ATOM     20  N   UNL     1     -10.071   7.843  71.397  0.00  0.00    -0.137 N 
ATOM     21  C   UNL     1     -10.971   7.418  72.428  0.00  0.00    +0.358 C 
ATOM     22  O   UNL     1     -11.810   8.179  72.947  0.00  0.00    -0.242 OA
ATOM     23  C   UNL     1     -10.507   6.114  72.943  0.00  0.00    +0.264 C 
ATOM     24  C   UNL     1     -11.573   5.052  72.922  0.00  0.00    +0.061 C 
ATOM     25  C   UNL     1     -10.970   3.985  73.811  0.00  0.00    +0.005 C 
ATOM     26  C   UNL     1     -10.012   4.690  74.744  0.00  0.00    +0.005 C 
ATOM     27  C   UNL     1     -10.067   6.159  74.378  0.00  0.00    +0.061 C 
ATOM     28  N   UNL     1      -9.451   5.784  72.027  0.00  0.00    -0.067 NA
BRANCH  19  29
ATOM     29  C   UNL     1      -8.478   6.435  69.893  0.00  0.00    +0.117 C 
BRANCH  29  30
ATOM     30  C   UNL     1      -9.441   5.956  68.811  0.00  0.00    +0.013 C 
BRANCH  30  32
ATOM     31  C   UNL     1     -10.703   7.276  67.205  0.00  0.00    +0.000 C 
ATOM     32  C   UNL     1      -9.309   6.958  67.672  0.00  0.00    +0.001 C 
ENDBRANCH  30  32
ENDBRANCH  29  30
ENDBRANCH  19  29
ENDBRANCH  18  20
ENDBRANCH   1  18
TORSDOF 7
ENDMDL
MODEL 7
REMARK VINA RESULT:      -7.5      1.588      2.317
REMARK  Name = 
REMARK  7 active torsions:
REMARK  status: ('A' for Active; 'I' for Inactive)
REMARK    1  A    between atoms: C_2  and  C_3
REMARK    2  A    between atoms: C_3  and  C_4
REMARK    3  A    between atoms: C_4  and  C_5
REMARK    4  A    between atoms: N_14  and  C_15
REMARK    5  A    between atoms: C_15  and  C_16
REMARK    6  A    between atoms: C_19  and  C_20
REMARK    7  A    between atoms: C_25  and  C_26
REMARK                            x       y       z     vdW  Elec       q    Type
REMARK                         _______ _______ _______ _____ _____    ______ ____
ROOT
ATOM      1  C   UNL     1      -9.498  18.595  67.585  0.00  0.00    +0.025 A 
ATOM      2  C   UNL     1      -8.856  18.653  68.789  0.00  0.00    -0.000 A 
ATOM      3  C   UNL     1      -7.512  19.002  68.793  0.00  0.00    -0.000 A 
ATOM      4  C   UNL     1      -6.900  19.643  67.725  0.00  0.00    -0.001 A 
ATOM      5  C   UNL     1      -7.727  19.899  66.639  0.00  0.00    -0.000 A 
ATOM      6  C   UNL     1      -9.048  19.469  66.604  0.00  0.00    -0.000 A 
ENDROOT
BRANCH   4   7
ATOM      7  C   UNL     1      -5.464  19.378  67.557  0.00  0.00    -0.006 A 
ATOM      8  C   UNL     1      -4.584  19.931  68.448  0.00  0.00    -0.015 A 
ATOM      9  C   UNL     1      -3.299  20.166  68.009  0.00  0.00    -0.007 A 
ATOM     10  C   UNL     1      -2.923  19.938  66.691  0.00  0.00    -0.001 A 
ATOM     11  C   UNL     1      -3.659  18.965  66.027  0.00  0.00    -0.000 A 
ATOM     12  C   UNL     1      -4.955  18.768  66.417  0.00  0.00    -0.001 A 
BRANCH   8  13
ATOM     13  C   UNL     1      -4.966  19.988  69.863  0.00  0.00    +0.044 A 
ATOM     14  N   UNL     1      -4.564  19.164  70.862  0.00  0.00    -0.289 NA
ATOM     15  N   UNL     1      -4.814  19.767  72.024  0.00  0.00    -0.218 NA
ATOM     16  N   UNL     1      -4.749  21.071  71.762  0.00  0.00    -0.218 NA
ATOM     17  N   UNL     1      -5.179  21.165  70.503  0.00  0.00    -0.289 NA
ENDBRANCH   8  13
ENDBRANCH   4   7
BRANCH   1  18
ATOM     18  C   UNL     1     -10.686  17.795  67.269  0.00  0.00    +0.237 C 
BRANCH  18  20
ATOM     19  C   UNL     1     -10.263  15.330  67.511  0.00  0.00    +0.301 C 
ATOM     20  N   UNL     1     -10.373  16.499  66.691  0.00  0.00    -0.137 N 
ATOM     21  C   UNL     1     -10.734  15.983  65.405  0.00  0.00    +0.358 C 
ATOM     22  O   UNL     1     -10.948  16.715  64.419  0.00  0.00    -0.242 OA
ATOM     23  C   UNL     1     -11.106  14.562  65.560  0.00  0.00    +0.264 C 
ATOM     24  C   UNL     1     -10.351  13.643  64.638  0.00  0.00    +0.061 C 
ATOM     25  C   UNL     1     -11.160  12.368  64.734  0.00  0.00    +0.005 C 
ATOM     26  C   UNL     1     -12.564  12.774  65.120  0.00  0.00    +0.005 C 
ATOM     27  C   UNL     1     -12.549  14.283  65.250  0.00  0.00    +0.061 C 
ATOM     28  N   UNL     1     -10.751  14.303  66.928  0.00  0.00    -0.067 NA
BRANCH  19  29
ATOM     29  C   UNL     1      -9.532  15.244  68.813  0.00  0.00    +0.117 C 
BRANCH  29  30
ATOM     30  C   UNL     1      -8.295  14.382  68.586  0.00  0.00    +0.013 C 
BRANCH  30  32
ATOM     31  C   UNL     1      -6.577  15.644  67.416  0.00  0.00    +0.000 C 
ATOM     32  C   UNL     1      -7.105  15.312  68.784  0.00  0.00    +0.001 C 
ENDBRANCH  30  32
ENDBRANCH  29  30
ENDBRANCH  19  29
ENDBRANCH  18  20
ENDBRANCH   1  18
TORSDOF 7
ENDMDL
MODEL 8
REMARK VINA RESULT:      -7.3      3.857      8.818
REMARK  Name = 
REMARK  7 active torsions:
REMARK  status: ('A' for Active; 'I' for Inactive)
REMARK    1  A    between atoms: C_2  and  C_3
REMARK    2  A    between atoms: C_3  and  C_4
REMARK    3  A    between atoms: C_4  and  C_5
REMARK    4  A    between atoms: N_14  and  C_15
REMARK    5  A    between atoms: C_15  and  C_16
REMARK    6  A    between atoms: C_19  and  C_20
REMARK    7  A    between atoms: C_25  and  C_26
REMARK                            x       y       z     vdW  Elec       q    Type
REMARK                         _______ _______ _______ _____ _____    ______ ____
ROOT
ATOM      1  C   UNL     1     -11.306  13.576  68.518  0.00  0.00    +0.025 A 
ATOM      2  C   UNL     1     -11.990  12.783  69.395  0.00  0.00    -0.000 A 
ATOM      3  C   UNL     1     -11.662  11.435  69.446  0.00  0.00    -0.000 A 
ATOM      4  C   UNL     1     -10.465  10.935  68.952  0.00  0.00    -0.001 A 
ATOM      5  C   UNL     1      -9.620  11.882  68.387  0.00  0.00    -0.000 A 
ATOM      6  C   UNL     1      -9.990  13.215  68.259  0.00  0.00    -0.000 A 
ENDROOT
BRANCH   4   7
ATOM      7  C   UNL     1     -10.501   9.547  68.472  0.00  0.00    -0.006 A 
ATOM      8  C   UNL     1     -10.179   8.541  69.343  0.00  0.00    -0.015 A 
ATOM      9  C   UNL     1      -9.673   7.375  68.809  0.00  0.00    -0.007 A 
ATOM     10  C   UNL     1      -9.412   7.246  67.451  0.00  0.00    -0.001 A 
ATOM     11  C   UNL     1     -10.186   8.048  66.622  0.00  0.00    -0.000 A 
ATOM     12  C   UNL     1     -10.642   9.236  67.125  0.00  0.00    -0.001 A 
BRANCH   8  13
ATOM     13  C   UNL     1     -10.634   8.649  70.734  0.00  0.00    +0.044 A 
ATOM     14  N   UNL     1     -11.736   8.088  71.290  0.00  0.00    -0.289 NA
ATOM     15  N   UNL     1     -11.586   8.099  72.613  0.00  0.00    -0.218 NA
ATOM     16  N   UNL     1     -10.270   8.051  72.816  0.00  0.00    -0.218 NA
ATOM     17  N   UNL     1      -9.763   8.707  71.772  0.00  0.00    -0.289 NA
ENDBRANCH   8  13
ENDBRANCH   4   7
BRANCH   1  18
ATOM     18  C   UNL     1     -11.781  14.830  67.926  0.00  0.00    +0.237 C 
BRANCH  18  20
ATOM     19  C   UNL     1     -10.754  16.047  65.982  0.00  0.00    +0.301 C 
ATOM     20  N   UNL     1     -10.717  15.639  67.354  0.00  0.00    -0.137 N 
ATOM     21  C   UNL     1      -9.916  16.643  67.989  0.00  0.00    +0.358 C 
ATOM     22  O   UNL     1      -9.678  16.642  69.212  0.00  0.00    -0.242 OA
ATOM     23  C   UNL     1      -9.739  17.764  67.044  0.00  0.00    +0.264 C 
ATOM     24  C   UNL     1      -8.297  18.137  66.825  0.00  0.00    +0.061 C 
ATOM     25  C   UNL     1      -8.421  19.485  66.150  0.00  0.00    +0.005 C 
ATOM     26  C   UNL     1      -9.746  20.067  66.586  0.00  0.00    +0.005 C 
ATOM     27  C   UNL     1     -10.378  19.042  67.504  0.00  0.00    +0.061 C 
ATOM     28  N   UNL     1     -10.311  17.236  65.837  0.00  0.00    -0.067 NA
BRANCH  19  29
ATOM     29  C   UNL     1     -11.099  15.170  64.821  0.00  0.00    +0.117 C 
BRANCH  29  30
ATOM     30  C   UNL     1     -10.184  13.952  64.879  0.00  0.00    +0.013 C 
BRANCH  30  32
ATOM     31  C   UNL     1     -11.910  12.267  65.184  0.00  0.00    +0.000 C 
ATOM     32  C   UNL     1     -10.944  12.833  64.180  0.00  0.00    +0.001 C 
ENDBRANCH  30  32
ENDBRANCH  29  30
ENDBRANCH  19  29
ENDBRANCH  18  20
ENDBRANCH   1  18
TORSDOF 7
ENDMDL
MODEL 9
REMARK VINA RESULT:      -7.3      3.663      8.766
REMARK  Name = 
REMARK  7 active torsions:
REMARK  status: ('A' for Active; 'I' for Inactive)
REMARK    1  A    between atoms: C_2  and  C_3
REMARK    2  A    between atoms: C_3  and  C_4
REMARK    3  A    between atoms: C_4  and  C_5
REMARK    4  A    between atoms: N_14  and  C_15
REMARK    5  A    between atoms: C_15  and  C_16
REMARK    6  A    between atoms: C_19  and  C_20
REMARK    7  A    between atoms: C_25  and  C_26
REMARK                            x       y       z     vdW  Elec       q    Type
REMARK                         _______ _______ _______ _____ _____    ______ ____
ROOT
ATOM      1  C   UNL     1     -10.862  13.095  67.984  0.00  0.00    +0.025 A 
ATOM      2  C   UNL     1     -11.676  11.999  68.007  0.00  0.00    -0.000 A 
ATOM      3  C   UNL     1     -11.227  10.842  67.384  0.00  0.00    -0.000 A 
ATOM      4  C   UNL     1      -9.889  10.624  67.082  0.00  0.00    -0.001 A 
ATOM      5  C   UNL     1      -9.030  11.656  67.434  0.00  0.00    -0.000 A 
ATOM      6  C   UNL     1      -9.496  12.848  67.976  0.00  0.00    -0.000 A 
ENDROOT
BRANCH   4   7
ATOM      7  C   UNL     1      -9.628   9.764  65.919  0.00  0.00    -0.006 A 
ATOM      8  C   UNL     1      -8.925   8.604  66.104  0.00  0.00    -0.015 A 
ATOM      9  C   UNL     1      -8.215   8.114  65.029  0.00  0.00    -0.007 A 
ATOM     10  C   UNL     1      -8.135   8.806  63.827  0.00  0.00    -0.001 A 
ATOM     11  C   UNL     1      -9.210   9.645  63.558  0.00  0.00    -0.000 A 
ATOM     12  C   UNL     1      -9.882  10.184  64.619  0.00  0.00    -0.001 A 
BRANCH   8  13
ATOM     13  C   UNL     1      -9.178   7.818  67.317  0.00  0.00    +0.044 A 
ATOM     14  N   UNL     1      -8.617   7.982  68.540  0.00  0.00    -0.289 NA
ATOM     15  N   UNL     1      -9.374   7.347  69.433  0.00  0.00    -0.218 NA
ATOM     16  N   UNL     1     -10.605   7.366  68.924  0.00  0.00    -0.218 NA
ATOM     17  N   UNL     1     -10.405   7.320  67.606  0.00  0.00    -0.289 NA
ENDBRANCH   8  13
ENDBRANCH   4   7
BRANCH   1  18
ATOM     18  C   UNL     1     -11.285  14.495  68.092  0.00  0.00    +0.237 C 
BRANCH  18  20
ATOM     19  C   UNL     1     -10.411  15.736  66.090  0.00  0.00    +0.301 C 
ATOM     20  N   UNL     1     -10.350  15.430  67.487  0.00  0.00    -0.137 N 
ATOM     21  C   UNL     1      -9.745  16.591  68.068  0.00  0.00    +0.358 C 
ATOM     22  O   UNL     1      -9.547  16.709  69.292  0.00  0.00    -0.242 OA
ATOM     23  C   UNL     1      -9.724  17.663  67.051  0.00  0.00    +0.264 C 
ATOM     24  C   UNL     1      -8.356  18.253  66.835  0.00  0.00    +0.061 C 
ATOM     25  C   UNL     1      -8.678  19.516  66.067  0.00  0.00    +0.005 C 
ATOM     26  C   UNL     1     -10.093  19.899  66.436  0.00  0.00    +0.005 C 
ATOM     27  C   UNL     1     -10.577  18.845  67.410  0.00  0.00    +0.061 C 
ATOM     28  N   UNL     1     -10.164  16.971  65.872  0.00  0.00    -0.067 NA
BRANCH  19  29
ATOM     29  C   UNL     1     -10.573  14.741  64.985  0.00  0.00    +0.117 C 
BRANCH  29  30
ATOM     30  C   UNL     1     -12.054  14.691  64.629  0.00  0.00    +0.013 C 
BRANCH  30  32
ATOM     31  C   UNL     1     -12.109  12.598  63.393  0.00  0.00    +0.000 C 
ATOM     32  C   UNL     1     -12.448  13.223  64.718  0.00  0.00    +0.001 C 
ENDBRANCH  30  32
ENDBRANCH  29  30
ENDBRANCH  19  29
ENDBRANCH  18  20
ENDBRANCH   1  18
TORSDOF 7
ENDMDL
