MODEL 1
REMARK VINA RESULT:      -6.0      0.000      0.000
REMARK  Name = 
REMARK  3 active torsions:
REMARK  status: ('A' for Active; 'I' for Inactive)
REMARK    1  A    between atoms: N_6  and  C_7
REMARK    2  A    between atoms: C_7  and  C_8
REMARK    3  A    between atoms: C_8  and  C_10
REMARK                            x       y       z     vdW  Elec       q    Type
REMARK                         _______ _______ _______ _____ _____    ______ ____
ROOT
ATOM      1  C   UNL     1     -13.195  10.845  71.772  0.00  0.00    +0.137 C 
ATOM      2  N   UNL     1     -12.760  11.815  71.293  0.00  0.00    -0.263 N 
ATOM      3  C   UNL     1     -13.190  13.057  71.617  0.00  0.00    +0.335 A 
ATOM      4  O   UNL     1     -13.962  13.203  72.584  0.00  0.00    -0.246 OA
ATOM      5  N   UNL     1     -12.622  14.185  71.149  0.00  0.00    -0.245 N 
ATOM      6  C   UNL     1     -13.207  15.487  71.469  0.00  0.00    +0.138 C 
ATOM      7  C   UNL     1     -11.920  14.094  69.994  0.00  0.00    +0.283 A 
ATOM      8  O   UNL     1     -11.694  15.133  69.305  0.00  0.00    -0.265 OA
ATOM      9  C   UNL     1     -11.753  12.868  69.378  0.00  0.00    +0.153 A 
ATOM     10  N   UNL     1     -11.414  12.541  68.133  0.00  0.00    -0.301 N 
ATOM     11  C   UNL     1     -11.304  11.193  68.140  0.00  0.00    +0.180 A 
ATOM     12  N   UNL     1     -11.672  10.712  69.353  0.00  0.00    -0.206 NA
ATOM     13  C   UNL     1     -12.072  11.747  70.128  0.00  0.00    +0.170 A 
ENDROOT
BRANCH  10  14
ATOM     14  C   UNL     1     -11.894  13.261  66.956  0.00  0.00    +0.143 C 
BRANCH  14  15
ATOM     15  C   UNL     1     -11.160  12.472  65.686  0.00  0.00    +0.207 C 
ATOM     16  O   UNL     1     -10.528  13.784  65.206  0.00  0.00    -0.218 OA
BRANCH  15  17
ATOM     17  C   UNL     1     -12.529  12.643  64.755  0.00  0.00    +0.217 C 
ATOM     18  O   UNL     1     -13.132  13.802  65.133  0.00  0.00    -0.218 OA
ENDBRANCH  15  17
ENDBRANCH  14  15
ENDBRANCH  10  14
TORSDOF 3
ENDMDL
MODEL 2
REMARK VINA RESULT:      -6.0      3.019      6.355
REMARK  Name = 
REMARK  3 active torsions:
REMARK  status: ('A' for Active; 'I' for Inactive)
REMARK    1  A    between atoms: N_6  and  C_7
REMARK    2  A    between atoms: C_7  and  C_8
REMARK    3  A    between atoms: C_8  and  C_10
REMARK                            x       y       z     vdW  Elec       q    Type
REMARK                         _______ _______ _______ _____ _____    ______ ____
ROOT
ATOM      1  C   UNL     1     -10.179  18.224  66.208  0.00  0.00    +0.137 C 
ATOM      2  N   UNL     1     -10.441  17.097  66.354  0.00  0.00    -0.263 N 
ATOM      3  C   UNL     1     -11.045  16.349  65.401  0.00  0.00    +0.335 A 
ATOM      4  O   UNL     1     -11.183  16.816  64.254  0.00  0.00    -0.246 OA
ATOM      5  N   UNL     1     -11.255  15.024  65.520  0.00  0.00    -0.245 N 
ATOM      6  C   UNL     1     -12.001  14.305  64.489  0.00  0.00    +0.138 C 
ATOM      7  C   UNL     1     -11.289  14.511  66.774  0.00  0.00    +0.283 A 
ATOM      8  O   UNL     1     -11.848  13.393  66.986  0.00  0.00    -0.265 OA
ATOM      9  C   UNL     1     -11.048  15.325  67.864  0.00  0.00    +0.153 A 
ATOM     10  N   UNL     1     -11.327  15.179  69.157  0.00  0.00    -0.301 N 
ATOM     11  C   UNL     1     -10.758  16.246  69.763  0.00  0.00    +0.180 A 
ATOM     12  N   UNL     1     -10.232  17.074  68.828  0.00  0.00    -0.206 NA
ATOM     13  C   UNL     1     -10.501  16.571  67.601  0.00  0.00    +0.170 A 
ENDROOT
BRANCH  10  14
ATOM     14  C   UNL     1     -12.574  14.598  69.649  0.00  0.00    +0.143 C 
BRANCH  14  15
ATOM     15  C   UNL     1     -12.417  14.672  71.306  0.00  0.00    +0.207 C 
ATOM     16  O   UNL     1     -12.717  13.172  71.424  0.00  0.00    -0.218 OA
BRANCH  15  17
ATOM     17  C   UNL     1     -14.008  15.133  71.462  0.00  0.00    +0.217 C 
ATOM     18  O   UNL     1     -14.082  15.974  72.530  0.00  0.00    -0.218 OA
ENDBRANCH  15  17
ENDBRANCH  14  15
ENDBRANCH  10  14
TORSDOF 3
ENDMDL
MODEL 3
REMARK VINA RESULT:      -5.9      1.973      5.596
REMARK  Name = 
REMARK  3 active torsions:
REMARK  status: ('A' for Active; 'I' for Inactive)
REMARK    1  A    between atoms: N_6  and  C_7
REMARK    2  A    between atoms: C_7  and  C_8
REMARK    3  A    between atoms: C_8  and  C_10
REMARK                            x       y       z     vdW  Elec       q    Type
REMARK                         _______ _______ _______ _____ _____    ______ ____
ROOT
ATOM      1  C   UNL     1     -10.381  11.343  68.437  0.00  0.00    +0.137 C 
ATOM      2  N   UNL     1     -10.827  12.420  68.464  0.00  0.00    -0.263 N 
ATOM      3  C   UNL     1     -10.289  13.461  67.787  0.00  0.00    +0.335 A 
ATOM      4  O   UNL     1      -9.381  13.248  66.961  0.00  0.00    -0.246 OA
ATOM      5  N   UNL     1     -10.857  14.681  67.727  0.00  0.00    -0.245 N 
ATOM      6  C   UNL     1     -10.163  15.779  67.056  0.00  0.00    +0.138 C 
ATOM      7  C   UNL     1     -11.721  15.013  68.717  0.00  0.00    +0.283 A 
ATOM      8  O   UNL     1     -11.986  16.231  68.945  0.00  0.00    -0.265 OA
ATOM      9  C   UNL     1     -12.039  14.093  69.698  0.00  0.00    +0.153 A 
ATOM     10  N   UNL     1     -12.569  14.239  70.910  0.00  0.00    -0.301 N 
ATOM     11  C   UNL     1     -12.750  12.979  71.370  0.00  0.00    +0.180 A 
ATOM     12  N   UNL     1     -12.238  12.093  70.481  0.00  0.00    -0.206 NA
ATOM     13  C   UNL     1     -11.677  12.777  69.457  0.00  0.00    +0.170 A 
ENDROOT
BRANCH  10  14
ATOM     14  C   UNL     1     -12.224  15.336  71.810  0.00  0.00    +0.143 C 
BRANCH  14  15
ATOM     15  C   UNL     1     -13.191  15.074  73.141  0.00  0.00    +0.207 C 
ATOM     16  O   UNL     1     -14.281  15.982  72.557  0.00  0.00    -0.218 OA
BRANCH  15  17
ATOM     17  C   UNL     1     -12.431  16.302  73.967  0.00  0.00    +0.217 C 
ATOM     18  O   UNL     1     -12.521  16.012  75.294  0.00  0.00    -0.218 OA
ENDBRANCH  15  17
ENDBRANCH  14  15
ENDBRANCH  10  14
TORSDOF 3
ENDMDL
MODEL 4
REMARK VINA RESULT:      -5.8      3.156      4.855
REMARK  Name = 
REMARK  3 active torsions:
REMARK  status: ('A' for Active; 'I' for Inactive)
REMARK    1  A    between atoms: N_6  and  C_7
REMARK    2  A    between atoms: C_7  and  C_8
REMARK    3  A    between atoms: C_8  and  C_10
REMARK                            x       y       z     vdW  Elec       q    Type
REMARK                         _______ _______ _______ _____ _____    ______ ____
ROOT
ATOM      1  C   UNL     1     -11.838  12.318  69.723  0.00  0.00    +0.137 C 
ATOM      2  N   UNL     1     -11.884  12.906  68.717  0.00  0.00    -0.263 N 
ATOM      3  C   UNL     1     -11.774  12.311  67.507  0.00  0.00    +0.335 A 
ATOM      4  O   UNL     1     -11.794  11.067  67.434  0.00  0.00    -0.246 OA
ATOM      5  N   UNL     1     -11.932  12.965  66.340  0.00  0.00    -0.245 N 
ATOM      6  C   UNL     1     -11.701  12.272  65.074  0.00  0.00    +0.138 C 
ATOM      7  C   UNL     1     -11.740  14.307  66.350  0.00  0.00    +0.283 A 
ATOM      8  O   UNL     1     -11.492  14.920  65.269  0.00  0.00    -0.265 OA
ATOM      9  C   UNL     1     -11.461  14.959  67.536  0.00  0.00    +0.153 A 
ATOM     10  N   UNL     1     -10.928  16.153  67.785  0.00  0.00    -0.301 N 
ATOM     11  C   UNL     1     -10.999  16.297  69.129  0.00  0.00    +0.180 A 
ATOM     12  N   UNL     1     -11.477  15.156  69.684  0.00  0.00    -0.206 NA
ATOM     13  C   UNL     1     -11.675  14.244  68.704  0.00  0.00    +0.170 A 
ENDROOT
BRANCH  10  14
ATOM     14  C   UNL     1      -9.820  16.713  67.016  0.00  0.00    +0.143 C 
BRANCH  14  15
ATOM     15  C   UNL     1     -10.201  18.331  66.897  0.00  0.00    +0.207 C 
ATOM     16  O   UNL     1     -10.642  18.144  65.440  0.00  0.00    -0.218 OA
BRANCH  15  17
ATOM     17  C   UNL     1      -8.626  18.700  66.507  0.00  0.00    +0.217 C 
ATOM     18  O   UNL     1      -8.149  17.679  65.745  0.00  0.00    -0.218 OA
ENDBRANCH  15  17
ENDBRANCH  14  15
ENDBRANCH  10  14
TORSDOF 3
ENDMDL
MODEL 5
REMARK VINA RESULT:      -5.7      4.945      5.701
REMARK  Name = 
REMARK  3 active torsions:
REMARK  status: ('A' for Active; 'I' for Inactive)
REMARK    1  A    between atoms: N_6  and  C_7
REMARK    2  A    between atoms: C_7  and  C_8
REMARK    3  A    between atoms: C_8  and  C_10
REMARK                            x       y       z     vdW  Elec       q    Type
REMARK                         _______ _______ _______ _____ _____    ______ ____
ROOT
ATOM      1  C   UNL     1      -7.607  17.099  68.821  0.00  0.00    +0.137 C 
ATOM      2  N   UNL     1      -8.265  17.194  67.863  0.00  0.00    -0.263 N 
ATOM      3  C   UNL     1      -8.989  18.299  67.571  0.00  0.00    +0.335 A 
ATOM      4  O   UNL     1      -8.829  19.332  68.249  0.00  0.00    -0.246 OA
ATOM      5  N   UNL     1      -9.666  18.460  66.417  0.00  0.00    -0.245 N 
ATOM      6  C   UNL     1     -10.504  19.641  66.217  0.00  0.00    +0.138 C 
ATOM      7  C   UNL     1     -10.014  17.338  65.740  0.00  0.00    +0.283 A 
ATOM      8  O   UNL     1     -10.952  17.376  64.889  0.00  0.00    -0.265 OA
ATOM      9  C   UNL     1      -9.618  16.097  66.203  0.00  0.00    +0.153 A 
ATOM     10  N   UNL     1     -10.067  14.871  65.944  0.00  0.00    -0.301 N 
ATOM     11  C   UNL     1      -9.225  14.042  66.603  0.00  0.00    +0.180 A 
ATOM     12  N   UNL     1      -8.343  14.771  67.329  0.00  0.00    -0.206 NA
ATOM     13  C   UNL     1      -8.640  16.083  67.185  0.00  0.00    +0.170 A 
ENDROOT
BRANCH  10  14
ATOM     14  C   UNL     1     -11.483  14.552  65.788  0.00  0.00    +0.143 C 
BRANCH  14  15
ATOM     15  C   UNL     1     -11.561  13.830  64.288  0.00  0.00    +0.207 C 
ATOM     16  O   UNL     1     -12.711  14.758  63.875  0.00  0.00    -0.218 OA
BRANCH  15  17
ATOM     17  C   UNL     1     -12.564  12.642  64.883  0.00  0.00    +0.217 C 
ATOM     18  O   UNL     1     -13.254  12.131  63.828  0.00  0.00    -0.218 OA
ENDBRANCH  15  17
ENDBRANCH  14  15
ENDBRANCH  10  14
TORSDOF 3
ENDMDL
MODEL 6
REMARK VINA RESULT:      -5.6      3.117      4.267
REMARK  Name = 
REMARK  3 active torsions:
REMARK  status: ('A' for Active; 'I' for Inactive)
REMARK    1  A    between atoms: N_6  and  C_7
REMARK    2  A    between atoms: C_7  and  C_8
REMARK    3  A    between atoms: C_8  and  C_10
REMARK                            x       y       z     vdW  Elec       q    Type
REMARK                         _______ _______ _______ _____ _____    ______ ____
ROOT
ATOM      1  C   UNL     1     -10.981  16.251  70.122  0.00  0.00    +0.137 C 
ATOM      2  N   UNL     1     -10.699  16.167  68.994  0.00  0.00    -0.263 N 
ATOM      3  C   UNL     1     -10.655  17.232  68.161  0.00  0.00    +0.335 A 
ATOM      4  O   UNL     1     -10.749  18.381  68.633  0.00  0.00    -0.246 OA
ATOM      5  N   UNL     1     -10.228  17.161  66.885  0.00  0.00    -0.245 N 
ATOM      6  C   UNL     1     -10.302  18.337  66.021  0.00  0.00    +0.138 C 
ATOM      7  C   UNL     1     -10.280  15.949  66.281  0.00  0.00    +0.283 A 
ATOM      8  O   UNL     1     -10.270  15.871  65.016  0.00  0.00    -0.265 OA
ATOM      9  C   UNL     1     -10.695  14.837  66.989  0.00  0.00    +0.153 A 
ATOM     10  N   UNL     1     -11.138  13.647  66.589  0.00  0.00    -0.301 N 
ATOM     11  C   UNL     1     -11.290  12.928  67.725  0.00  0.00    +0.180 A 
ATOM     12  N   UNL     1     -11.036  13.715  68.799  0.00  0.00    -0.206 NA
ATOM     13  C   UNL     1     -10.764  14.968  68.367  0.00  0.00    +0.170 A 
ENDROOT
BRANCH  10  14
ATOM     14  C   UNL     1     -12.030  13.466  65.447  0.00  0.00    +0.143 C 
BRANCH  14  15
ATOM     15  C   UNL     1     -11.481  12.063  64.737  0.00  0.00    +0.207 C 
ATOM     16  O   UNL     1     -10.338  12.827  64.057  0.00  0.00    -0.218 OA
BRANCH  15  17
ATOM     17  C   UNL     1     -12.538  12.261  63.467  0.00  0.00    +0.217 C 
ATOM     18  O   UNL     1     -12.629  13.596  63.221  0.00  0.00    -0.218 OA
ENDBRANCH  15  17
ENDBRANCH  14  15
ENDBRANCH  10  14
TORSDOF 3
ENDMDL
MODEL 7
REMARK VINA RESULT:      -5.5      2.270      5.395
REMARK  Name = 
REMARK  3 active torsions:
REMARK  status: ('A' for Active; 'I' for Inactive)
REMARK    1  A    between atoms: N_6  and  C_7
REMARK    2  A    between atoms: C_7  and  C_8
REMARK    3  A    between atoms: C_8  and  C_10
REMARK                            x       y       z     vdW  Elec       q    Type
REMARK                         _______ _______ _______ _____ _____    ______ ____
ROOT
ATOM      1  C   UNL     1      -9.834   9.929  66.435  0.00  0.00    +0.137 C 
ATOM      2  N   UNL     1     -10.619  10.757  66.193  0.00  0.00    -0.263 N 
ATOM      3  C   UNL     1     -10.811  11.253  64.948  0.00  0.00    +0.335 A 
ATOM      4  O   UNL     1     -10.259  10.698  63.978  0.00  0.00    -0.246 OA
ATOM      5  N   UNL     1     -11.785  12.131  64.640  0.00  0.00    -0.245 N 
ATOM      6  C   UNL     1     -11.866  12.693  63.293  0.00  0.00    +0.138 C 
ATOM      7  C   UNL     1     -12.286  12.881  65.651  0.00  0.00    +0.283 A 
ATOM      8  O   UNL     1     -12.899  13.961  65.395  0.00  0.00    -0.265 OA
ATOM      9  C   UNL     1     -11.844  12.686  66.946  0.00  0.00    +0.153 A 
ATOM     10  N   UNL     1     -11.909  13.457  68.029  0.00  0.00    -0.301 N 
ATOM     11  C   UNL     1     -11.408  12.698  69.031  0.00  0.00    +0.180 A 
ATOM     12  N   UNL     1     -10.955  11.523  68.530  0.00  0.00    -0.206 NA
ATOM     13  C   UNL     1     -11.116  11.532  67.187  0.00  0.00    +0.170 A 
ENDROOT
BRANCH  10  14
ATOM     14  C   UNL     1     -11.713  14.904  67.998  0.00  0.00    +0.143 C 
BRANCH  14  15
ATOM     15  C   UNL     1     -11.008  15.239  69.469  0.00  0.00    +0.207 C 
ATOM     16  O   UNL     1     -12.217  16.089  69.881  0.00  0.00    -0.218 OA
BRANCH  15  17
ATOM     17  C   UNL     1     -10.173  16.517  68.808  0.00  0.00    +0.217 C 
ATOM     18  O   UNL     1     -11.093  17.401  68.338  0.00  0.00    -0.218 OA
ENDBRANCH  15  17
ENDBRANCH  14  15
ENDBRANCH  10  14
TORSDOF 3
ENDMDL
MODEL 8
REMARK VINA RESULT:      -5.5      2.729      5.037
REMARK  Name = 
REMARK  3 active torsions:
REMARK  status: ('A' for Active; 'I' for Inactive)
REMARK    1  A    between atoms: N_6  and  C_7
REMARK    2  A    between atoms: C_7  and  C_8
REMARK    3  A    between atoms: C_8  and  C_10
REMARK                            x       y       z     vdW  Elec       q    Type
REMARK                         _______ _______ _______ _____ _____    ______ ____
ROOT
ATOM      1  C   UNL     1     -10.001  10.211  66.763  0.00  0.00    +0.137 C 
ATOM      2  N   UNL     1     -10.766  11.033  66.450  0.00  0.00    -0.263 N 
ATOM      3  C   UNL     1     -11.003  11.371  65.161  0.00  0.00    +0.335 A 
ATOM      4  O   UNL     1     -10.522  10.673  64.248  0.00  0.00    -0.246 OA
ATOM      5  N   UNL     1     -11.960  12.242  64.785  0.00  0.00    -0.245 N 
ATOM      6  C   UNL     1     -12.089  12.628  63.381  0.00  0.00    +0.138 C 
ATOM      7  C   UNL     1     -12.381  13.138  65.711  0.00  0.00    +0.283 A 
ATOM      8  O   UNL     1     -12.967  14.200  65.344  0.00  0.00    -0.265 OA
ATOM      9  C   UNL     1     -11.881  13.094  66.999  0.00  0.00    +0.153 A 
ATOM     10  N   UNL     1     -11.863  14.000  67.973  0.00  0.00    -0.301 N 
ATOM     11  C   UNL     1     -11.340  13.358  69.042  0.00  0.00    +0.180 A 
ATOM     12  N   UNL     1     -10.955  12.109  68.680  0.00  0.00    -0.206 NA
ATOM     13  C   UNL     1     -11.184  11.951  67.356  0.00  0.00    +0.170 A 
ENDROOT
BRANCH  10  14
ATOM     14  C   UNL     1     -11.618  15.421  67.742  0.00  0.00    +0.143 C 
BRANCH  14  15
ATOM     15  C   UNL     1     -10.017  15.475  67.284  0.00  0.00    +0.207 C 
ATOM     16  O   UNL     1      -9.679  16.369  68.484  0.00  0.00    -0.218 OA
BRANCH  15  17
ATOM     17  C   UNL     1     -10.326  16.750  66.260  0.00  0.00    +0.217 C 
ATOM     18  O   UNL     1     -10.412  16.244  64.999  0.00  0.00    -0.218 OA
ENDBRANCH  15  17
ENDBRANCH  14  15
ENDBRANCH  10  14
TORSDOF 3
ENDMDL
MODEL 9
REMARK VINA RESULT:      -5.4      2.504      6.067
REMARK  Name = 
REMARK  3 active torsions:
REMARK  status: ('A' for Active; 'I' for Inactive)
REMARK    1  A    between atoms: N_6  and  C_7
REMARK    2  A    between atoms: C_7  and  C_8
REMARK    3  A    between atoms: C_8  and  C_10
REMARK                            x       y       z     vdW  Elec       q    Type
REMARK                         _______ _______ _______ _____ _____    ______ ____
ROOT
ATOM      1  C   UNL     1     -10.896  15.983  65.003  0.00  0.00    +0.137 C 
ATOM      2  N   UNL     1     -10.688  15.158  65.801  0.00  0.00    -0.263 N 
ATOM      3  C   UNL     1     -10.858  13.837  65.560  0.00  0.00    +0.335 A 
ATOM      4  O   UNL     1     -11.080  13.451  64.396  0.00  0.00    -0.246 OA
ATOM      5  N   UNL     1     -10.520  12.873  66.439  0.00  0.00    -0.245 N 
ATOM      6  C   UNL     1     -10.825  11.474  66.144  0.00  0.00    +0.138 C 
ATOM      7  C   UNL     1     -10.444  13.223  67.745  0.00  0.00    +0.283 A 
ATOM      8  O   UNL     1     -10.516  12.334  68.645  0.00  0.00    -0.265 OA
ATOM      9  C   UNL     1     -10.643  14.537  68.125  0.00  0.00    +0.153 A 
ATOM     10  N   UNL     1     -10.940  15.083  69.301  0.00  0.00    -0.301 N 
ATOM     11  C   UNL     1     -10.905  16.419  69.089  0.00  0.00    +0.180 A 
ATOM     12  N   UNL     1     -10.687  16.665  67.774  0.00  0.00    -0.206 NA
ATOM     13  C   UNL     1     -10.629  15.485  67.114  0.00  0.00    +0.170 A 
ENDROOT
BRANCH  10  14
ATOM     14  C   UNL     1     -11.879  14.487  70.248  0.00  0.00    +0.143 C 
BRANCH  14  15
ATOM     15  C   UNL     1     -12.375  15.778  71.177  0.00  0.00    +0.207 C 
ATOM     16  O   UNL     1     -11.584  15.246  72.379  0.00  0.00    -0.218 OA
BRANCH  15  17
ATOM     17  C   UNL     1     -13.777  14.980  71.585  0.00  0.00    +0.217 C 
ATOM     18  O   UNL     1     -14.609  15.892  72.159  0.00  0.00    -0.218 OA
ENDBRANCH  15  17
ENDBRANCH  14  15
ENDBRANCH  10  14
TORSDOF 3
ENDMDL
