MODEL 1
REMARK VINA RESULT:      -6.1      0.000      0.000
REMARK  Name = 
REMARK  2 active torsions:
REMARK  status: ('A' for Active; 'I' for Inactive)
REMARK    1  A    between atoms: C_3  and  C_4
REMARK    2  A    between atoms: C_11  and  S_12
REMARK                            x       y       z     vdW  Elec       q    Type
REMARK                         _______ _______ _______ _____ _____    ______ ____
ROOT
ATOM      1  C   UNL     1     -12.040  12.647  63.385  0.00  0.00    +0.117 C 
ATOM      2  N   UNL     1     -11.195  12.810  64.425  0.00  0.00    -0.134 NA
ATOM      3  S   UNL     1     -11.887  13.955  65.437  0.00  0.00    +0.066 S 
ATOM      4  O   UNL     1     -11.233  15.269  65.065  0.00  0.00    -0.153 OA
ATOM      5  O   UNL     1     -13.363  14.077  65.405  0.00  0.00    -0.153 OA
ATOM      6  C   UNL     1     -11.421  13.621  67.071  0.00  0.00    +0.138 A 
ATOM      7  C   UNL     1     -11.176  12.281  67.357  0.00  0.00    +0.086 A 
ATOM      8  C   UNL     1     -11.282  11.881  68.654  0.00  0.00    +0.030 A 
ATOM      9  C   UNL     1     -11.680  12.751  69.664  0.00  0.00    +0.078 A 
ATOM     10  C   UNL     1     -11.552  14.106  69.381  0.00  0.00    +0.137 A 
ATOM     11 CL   UNL     1     -12.758  12.266  70.961  0.00  0.00    -0.081 Cl
ATOM     12  N   UNL     1     -10.409  11.676  66.324  0.00  0.00    -0.219 NA
ATOM     13  C   UNL     1     -11.348  14.532  68.074  0.00  0.00    +0.042 A 
ATOM     14  C   UNL     1     -11.327  11.368  65.067  0.00  0.00    +0.187 C 
ENDROOT
BRANCH  10  15
ATOM     15  S   UNL     1     -12.061  15.351  70.514  0.00  0.00    +0.094 S 
ATOM     16  O   UNL     1     -11.610  16.657  69.897  0.00  0.00    -0.150 OA
ATOM     17  O   UNL     1     -13.573  15.334  70.549  0.00  0.00    -0.150 OA
ATOM     18  N   UNL     1     -11.393  15.108  72.074  0.00  0.00    +0.039 NA
ENDBRANCH  10  15
BRANCH  14  19
ATOM     19  C   UNL     1     -10.024  10.822  64.198  0.00  0.00    +0.135 C 
ATOM     20 CL   UNL     1      -9.389   9.420  65.070  0.00  0.00    -0.110 Cl
ENDBRANCH  14  19
TORSDOF 2
ENDMDL
MODEL 2
REMARK VINA RESULT:      -6.0      4.255      6.069
REMARK  Name = 
REMARK  2 active torsions:
REMARK  status: ('A' for Active; 'I' for Inactive)
REMARK    1  A    between atoms: C_3  and  C_4
REMARK    2  A    between atoms: C_11  and  S_12
REMARK                            x       y       z     vdW  Elec       q    Type
REMARK                         _______ _______ _______ _____ _____    ______ ____
ROOT
ATOM      1  C   UNL     1      -7.557  19.198  67.924  0.00  0.00    +0.117 C 
ATOM      2  N   UNL     1      -8.637  18.598  67.379  0.00  0.00    -0.134 NA
ATOM      3  S   UNL     1      -8.275  16.964  67.262  0.00  0.00    +0.066 S 
ATOM      4  O   UNL     1      -7.794  16.758  65.842  0.00  0.00    -0.153 OA
ATOM      5  O   UNL     1      -7.295  16.421  68.232  0.00  0.00    -0.153 OA
ATOM      6  C   UNL     1      -9.737  16.049  67.424  0.00  0.00    +0.138 A 
ATOM      7  C   UNL     1     -10.726  16.642  68.204  0.00  0.00    +0.086 A 
ATOM      8  C   UNL     1     -11.662  15.827  68.763  0.00  0.00    +0.030 A 
ATOM      9  C   UNL     1     -11.615  14.444  68.623  0.00  0.00    +0.078 A 
ATOM     10  C   UNL     1     -10.849  13.968  67.566  0.00  0.00    +0.137 A 
ATOM     11 CL   UNL     1     -12.002  13.345  69.937  0.00  0.00    -0.081 Cl
ATOM     12  N   UNL     1     -10.853  18.024  67.896  0.00  0.00    -0.219 NA
ATOM     13  C   UNL     1      -9.953  14.809  66.916  0.00  0.00    +0.042 A 
ATOM     14  C   UNL     1      -9.667  18.844  68.556  0.00  0.00    +0.187 C 
ENDROOT
BRANCH  10  15
ATOM     15  S   UNL     1     -10.625  12.249  67.271  0.00  0.00    +0.094 S 
ATOM     16  O   UNL     1     -12.024  11.672  67.209  0.00  0.00    -0.150 OA
ATOM     17  O   UNL     1      -9.987  12.106  65.908  0.00  0.00    -0.150 OA
ATOM     18  N   UNL     1      -9.675  11.509  68.491  0.00  0.00    +0.039 NA
ENDBRANCH  10  15
BRANCH  14  19
ATOM     19  C   UNL     1     -10.192  20.250  67.852  0.00  0.00    +0.135 C 
ATOM     20 CL   UNL     1     -10.635  19.845  66.188  0.00  0.00    -0.110 Cl
ENDBRANCH  14  19
TORSDOF 2
ENDMDL
MODEL 3
REMARK VINA RESULT:      -6.0      4.162      6.065
REMARK  Name = 
REMARK  2 active torsions:
REMARK  status: ('A' for Active; 'I' for Inactive)
REMARK    1  A    between atoms: C_3  and  C_4
REMARK    2  A    between atoms: C_11  and  S_12
REMARK                            x       y       z     vdW  Elec       q    Type
REMARK                         _______ _______ _______ _____ _____    ______ ____
ROOT
ATOM      1  C   UNL     1      -9.844  19.108  68.711  0.00  0.00    +0.117 C 
ATOM      2  N   UNL     1      -9.261  18.185  67.918  0.00  0.00    -0.134 NA
ATOM      3  S   UNL     1      -9.754  16.683  68.479  0.00  0.00    +0.066 S 
ATOM      4  O   UNL     1      -8.636  16.203  69.381  0.00  0.00    -0.153 OA
ATOM      5  O   UNL     1     -11.057  16.621  69.181  0.00  0.00    -0.153 OA
ATOM      6  C   UNL     1      -9.820  15.576  67.148  0.00  0.00    +0.138 A 
ATOM      7  C   UNL     1     -10.103  16.149  65.912  0.00  0.00    +0.086 A 
ATOM      8  C   UNL     1     -10.635  15.347  64.950  0.00  0.00    +0.030 A 
ATOM      9  C   UNL     1     -10.948  14.014  65.192  0.00  0.00    +0.078 A 
ATOM     10  C   UNL     1     -10.320  13.433  66.286  0.00  0.00    +0.137 A 
ATOM     11 CL   UNL     1     -12.398  13.252  64.558  0.00  0.00    -0.081 Cl
ATOM     12  N   UNL     1      -9.359  17.346  65.727  0.00  0.00    -0.219 NA
ATOM     13  C   UNL     1      -9.687  14.228  67.235  0.00  0.00    +0.042 A 
ATOM     14  C   UNL     1     -10.006  18.529  66.563  0.00  0.00    +0.187 C 
ENDROOT
BRANCH  10  15
ATOM     15  S   UNL     1     -10.641  11.775  66.780  0.00  0.00    +0.094 S 
ATOM     16  O   UNL     1      -9.717  11.525  67.953  0.00  0.00    -0.150 OA
ATOM     17  O   UNL     1     -12.069  11.723  67.275  0.00  0.00    -0.150 OA
ATOM     18  N   UNL     1     -10.378  10.664  65.501  0.00  0.00    +0.039 NA
ENDBRANCH  10  15
BRANCH  14  19
ATOM     19  C   UNL     1      -8.790  19.565  66.116  0.00  0.00    +0.135 C 
ATOM     20 CL   UNL     1      -7.320  18.591  65.989  0.00  0.00    -0.110 Cl
ENDBRANCH  14  19
TORSDOF 2
ENDMDL
MODEL 4
REMARK VINA RESULT:      -5.9      4.219      6.069
REMARK  Name = 
REMARK  2 active torsions:
REMARK  status: ('A' for Active; 'I' for Inactive)
REMARK    1  A    between atoms: C_3  and  C_4
REMARK    2  A    between atoms: C_11  and  S_12
REMARK                            x       y       z     vdW  Elec       q    Type
REMARK                         _______ _______ _______ _____ _____    ______ ____
ROOT
ATOM      1  C   UNL     1      -9.802  19.008  68.809  0.00  0.00    +0.117 C 
ATOM      2  N   UNL     1      -9.268  18.128  67.936  0.00  0.00    -0.134 NA
ATOM      3  S   UNL     1      -9.625  16.594  68.513  0.00  0.00    +0.066 S 
ATOM      4  O   UNL     1      -8.394  16.154  69.276  0.00  0.00    -0.153 OA
ATOM      5  O   UNL     1     -10.839  16.456  69.353  0.00  0.00    -0.153 OA
ATOM      6  C   UNL     1      -9.787  15.509  67.173  0.00  0.00    +0.138 A 
ATOM      7  C   UNL     1     -10.231  16.089  65.989  0.00  0.00    +0.086 A 
ATOM      8  C   UNL     1     -10.828  15.279  65.072  0.00  0.00    +0.030 A 
ATOM      9  C   UNL     1     -11.051  13.928  65.317  0.00  0.00    +0.078 A 
ATOM     10  C   UNL     1     -10.279  13.359  66.322  0.00  0.00    +0.137 A 
ATOM     11 CL   UNL     1     -12.525  13.108  64.829  0.00  0.00    -0.081 Cl
ATOM     12  N   UNL     1      -9.568  17.324  65.751  0.00  0.00    -0.219 NA
ATOM     13  C   UNL     1      -9.583  14.168  67.213  0.00  0.00    +0.042 A 
ATOM     14  C   UNL     1     -10.173  18.460  66.679  0.00  0.00    +0.187 C 
ENDROOT
BRANCH  10  15
ATOM     15  S   UNL     1     -10.466  11.680  66.810  0.00  0.00    +0.094 S 
ATOM     16  O   UNL     1     -10.405  10.884  65.524  0.00  0.00    -0.150 OA
ATOM     17  O   UNL     1      -9.263  11.320  67.653  0.00  0.00    -0.150 OA
ATOM     18  N   UNL     1     -11.931  11.420  67.662  0.00  0.00    +0.039 NA
ENDBRANCH  10  15
BRANCH  14  19
ATOM     19  C   UNL     1      -9.064  19.561  66.125  0.00  0.00    +0.135 C 
ATOM     20 CL   UNL     1      -7.512  18.717  66.047  0.00  0.00    -0.110 Cl
ENDBRANCH  14  19
TORSDOF 2
ENDMDL
MODEL 5
REMARK VINA RESULT:      -5.8      2.884      3.112
REMARK  Name = 
REMARK  2 active torsions:
REMARK  status: ('A' for Active; 'I' for Inactive)
REMARK    1  A    between atoms: C_3  and  C_4
REMARK    2  A    between atoms: C_11  and  S_12
REMARK                            x       y       z     vdW  Elec       q    Type
REMARK                         _______ _______ _______ _____ _____    ______ ____
ROOT
ATOM      1  C   UNL     1     -12.934  12.000  63.767  0.00  0.00    +0.117 C 
ATOM      2  N   UNL     1     -11.829  12.775  63.821  0.00  0.00    -0.134 NA
ATOM      3  S   UNL     1     -12.230  14.128  64.727  0.00  0.00    +0.066 S 
ATOM      4  O   UNL     1     -12.588  15.198  63.718  0.00  0.00    -0.153 OA
ATOM      5  O   UNL     1     -13.311  13.972  65.730  0.00  0.00    -0.153 OA
ATOM      6  C   UNL     1     -10.819  14.690  65.559  0.00  0.00    +0.138 A 
ATOM      7  C   UNL     1      -9.886  13.707  65.877  0.00  0.00    +0.086 A 
ATOM      8  C   UNL     1      -9.030  13.957  66.906  0.00  0.00    +0.030 A 
ATOM      9  C   UNL     1      -9.107  15.121  67.664  0.00  0.00    +0.078 A 
ATOM     10  C   UNL     1      -9.790  16.180  67.079  0.00  0.00    +0.137 A 
ATOM     11 CL   UNL     1      -8.876  15.135  69.404  0.00  0.00    -0.081 Cl
ATOM     12  N   UNL     1      -9.688  12.824  64.781  0.00  0.00    -0.219 NA
ATOM     13  C   UNL     1     -10.597  15.965  65.967  0.00  0.00    +0.042 A 
ATOM     14  C   UNL     1     -10.902  11.809  64.668  0.00  0.00    +0.187 C 
ENDROOT
BRANCH  10  15
ATOM     15  S   UNL     1     -10.041  17.708  67.913  0.00  0.00    +0.094 S 
ATOM     16  O   UNL     1     -10.931  17.374  69.091  0.00  0.00    -0.150 OA
ATOM     17  O   UNL     1      -8.696  18.157  68.441  0.00  0.00    -0.150 OA
ATOM     18  N   UNL     1     -10.741  18.890  66.889  0.00  0.00    +0.039 NA
ENDBRANCH  10  15
BRANCH  14  19
ATOM     19  C   UNL     1     -10.271  11.144  63.286  0.00  0.00    +0.135 C 
ATOM     20 CL   UNL     1      -9.336   9.730  63.790  0.00  0.00    -0.110 Cl
ENDBRANCH  14  19
TORSDOF 2
ENDMDL
MODEL 6
REMARK VINA RESULT:      -5.8      2.737      3.317
REMARK  Name = 
REMARK  2 active torsions:
REMARK  status: ('A' for Active; 'I' for Inactive)
REMARK    1  A    between atoms: C_3  and  C_4
REMARK    2  A    between atoms: C_11  and  S_12
REMARK                            x       y       z     vdW  Elec       q    Type
REMARK                         _______ _______ _______ _____ _____    ______ ____
ROOT
ATOM      1  C   UNL     1      -9.176  10.068  65.374  0.00  0.00    +0.117 C 
ATOM      2  N   UNL     1     -10.345  10.689  65.641  0.00  0.00    -0.134 NA
ATOM      3  S   UNL     1     -10.358  11.011  67.287  0.00  0.00    +0.066 S 
ATOM      4  O   UNL     1     -11.143   9.877  67.913  0.00  0.00    -0.153 OA
ATOM      5  O   UNL     1      -9.044  11.169  67.953  0.00  0.00    -0.153 OA
ATOM      6  C   UNL     1     -11.270  12.456  67.573  0.00  0.00    +0.138 A 
ATOM      7  C   UNL     1     -11.261  13.380  66.532  0.00  0.00    +0.086 A 
ATOM      8  C   UNL     1     -11.521  14.680  66.839  0.00  0.00    +0.030 A 
ATOM      9  C   UNL     1     -11.732  15.102  68.148  0.00  0.00    +0.078 A 
ATOM     10  C   UNL     1     -12.083  14.108  69.055  0.00  0.00    +0.137 A 
ATOM     11 CL   UNL     1     -11.094  16.614  68.771  0.00  0.00    -0.081 Cl
ATOM     12  N   UNL     1     -11.441  12.733  65.279  0.00  0.00    -0.219 NA
ATOM     13  C   UNL     1     -11.914  12.768  68.726  0.00  0.00    +0.042 A 
ATOM     14  C   UNL     1     -10.095  12.026  64.828  0.00  0.00    +0.187 C 
ENDROOT
BRANCH  10  15
ATOM     15  S   UNL     1     -12.329  14.445  70.763  0.00  0.00    +0.094 S 
ATOM     16  O   UNL     1     -12.660  13.106  71.387  0.00  0.00    -0.150 OA
ATOM     17  O   UNL     1     -11.006  14.919  71.322  0.00  0.00    -0.150 OA
ATOM     18  N   UNL     1     -13.569  15.600  71.016  0.00  0.00    +0.039 NA
ENDBRANCH  10  15
BRANCH  14  19
ATOM     19  C   UNL     1     -10.831  11.390  63.485  0.00  0.00    +0.135 C 
ATOM     20 CL   UNL     1     -12.480  12.030  63.464  0.00  0.00    -0.110 Cl
ENDBRANCH  14  19
TORSDOF 2
ENDMDL
MODEL 7
REMARK VINA RESULT:      -5.7      4.128      5.320
REMARK  Name = 
REMARK  2 active torsions:
REMARK  status: ('A' for Active; 'I' for Inactive)
REMARK    1  A    between atoms: C_3  and  C_4
REMARK    2  A    between atoms: C_11  and  S_12
REMARK                            x       y       z     vdW  Elec       q    Type
REMARK                         _______ _______ _______ _____ _____    ______ ____
ROOT
ATOM      1  C   UNL     1     -11.777  12.995  69.494  0.00  0.00    +0.117 C 
ATOM      2  N   UNL     1     -11.738  13.835  68.438  0.00  0.00    -0.134 NA
ATOM      3  S   UNL     1     -11.173  15.307  69.010  0.00  0.00    +0.066 S 
ATOM      4  O   UNL     1     -12.410  16.141  69.270  0.00  0.00    -0.153 OA
ATOM      5  O   UNL     1     -10.303  15.273  70.210  0.00  0.00    -0.153 OA
ATOM      6  C   UNL     1     -10.297  16.106  67.748  0.00  0.00    +0.138 A 
ATOM      7  C   UNL     1      -9.677  15.264  66.829  0.00  0.00    +0.086 A 
ATOM      8  C   UNL     1      -8.619  15.759  66.131  0.00  0.00    +0.030 A 
ATOM      9  C   UNL     1      -8.119  17.037  66.357  0.00  0.00    +0.078 A 
ATOM     10  C   UNL     1      -8.982  17.920  66.995  0.00  0.00    +0.137 A 
ATOM     11 CL   UNL     1      -6.401  17.395  66.364  0.00  0.00    -0.081 Cl
ATOM     12  N   UNL     1     -10.545  14.203  66.450  0.00  0.00    -0.219 NA
ATOM     13  C   UNL     1     -10.122  17.447  67.634  0.00  0.00    +0.042 A 
ATOM     14  C   UNL     1     -10.609  13.109  67.597  0.00  0.00    +0.187 C 
ENDROOT
BRANCH  10  15
ATOM     15  S   UNL     1      -8.502  19.559  67.416  0.00  0.00    +0.094 S 
ATOM     16  O   UNL     1      -7.814  20.100  66.180  0.00  0.00    -0.150 OA
ATOM     17  O   UNL     1      -9.768  20.353  67.645  0.00  0.00    -0.150 OA
ATOM     18  N   UNL     1      -7.480  19.593  68.792  0.00  0.00    +0.039 NA
ENDBRANCH  10  15
BRANCH  14  19
ATOM     19  C   UNL     1     -11.743  12.237  66.759  0.00  0.00    +0.135 C 
ATOM     20 CL   UNL     1     -12.489  13.355  65.609  0.00  0.00    -0.110 Cl
ENDBRANCH  14  19
TORSDOF 2
ENDMDL
MODEL 8
REMARK VINA RESULT:      -5.5      7.334      8.702
REMARK  Name = 
REMARK  2 active torsions:
REMARK  status: ('A' for Active; 'I' for Inactive)
REMARK    1  A    between atoms: C_3  and  C_4
REMARK    2  A    between atoms: C_11  and  S_12
REMARK                            x       y       z     vdW  Elec       q    Type
REMARK                         _______ _______ _______ _____ _____    ______ ____
ROOT
ATOM      1  C   UNL     1      -3.361  20.923  67.114  0.00  0.00    +0.117 C 
ATOM      2  N   UNL     1      -4.351  20.714  68.007  0.00  0.00    -0.134 NA
ATOM      3  S   UNL     1      -5.756  20.471  67.124  0.00  0.00    +0.066 S 
ATOM      4  O   UNL     1      -6.451  21.816  67.093  0.00  0.00    -0.153 OA
ATOM      5  O   UNL     1      -5.605  19.928  65.753  0.00  0.00    -0.153 OA
ATOM      6  C   UNL     1      -6.797  19.400  68.001  0.00  0.00    +0.138 A 
ATOM      7  C   UNL     1      -6.150  18.485  68.825  0.00  0.00    +0.086 A 
ATOM      8  C   UNL     1      -6.819  17.345  69.154  0.00  0.00    +0.030 A 
ATOM      9  C   UNL     1      -8.081  17.059  68.645  0.00  0.00    +0.078 A 
ATOM     10  C   UNL     1      -8.794  18.143  68.147  0.00  0.00    +0.137 A 
ATOM     11 CL   UNL     1      -8.556  15.445  68.143  0.00  0.00    -0.081 Cl
ATOM     12  N   UNL     1      -5.100  19.111  69.550  0.00  0.00    -0.219 NA
ATOM     13  C   UNL     1      -8.149  19.348  67.893  0.00  0.00    +0.042 A 
ATOM     14  C   UNL     1      -3.843  19.340  68.609  0.00  0.00    +0.187 C 
ENDROOT
BRANCH  10  15
ATOM     15  S   UNL     1     -10.381  17.962  67.410  0.00  0.00    +0.094 S 
ATOM     16  O   UNL     1     -11.159  17.075  68.358  0.00  0.00    -0.150 OA
ATOM     17  O   UNL     1     -11.027  19.329  67.394  0.00  0.00    -0.150 OA
ATOM     18  N   UNL     1     -10.282  17.294  65.835  0.00  0.00    +0.039 NA
ENDBRANCH  10  15
BRANCH  14  19
ATOM     19  C   UNL     1      -3.029  20.128  69.819  0.00  0.00    +0.135 C 
ATOM     20 CL   UNL     1      -4.202  21.192  70.606  0.00  0.00    -0.110 Cl
ENDBRANCH  14  19
TORSDOF 2
ENDMDL
MODEL 9
REMARK VINA RESULT:      -5.5      3.421      4.311
REMARK  Name = 
REMARK  2 active torsions:
REMARK  status: ('A' for Active; 'I' for Inactive)
REMARK    1  A    between atoms: C_3  and  C_4
REMARK    2  A    between atoms: C_11  and  S_12
REMARK                            x       y       z     vdW  Elec       q    Type
REMARK                         _______ _______ _______ _____ _____    ______ ____
ROOT
ATOM      1  C   UNL     1     -11.334  10.838  68.055  0.00  0.00    +0.117 C 
ATOM      2  N   UNL     1     -10.618  11.563  67.170  0.00  0.00    -0.134 NA
ATOM      3  S   UNL     1     -11.308  13.092  67.124  0.00  0.00    +0.066 S 
ATOM      4  O   UNL     1     -12.240  13.078  65.931  0.00  0.00    -0.153 OA
ATOM      5  O   UNL     1     -12.023  13.544  68.341  0.00  0.00    -0.153 OA
ATOM      6  C   UNL     1     -10.077  14.258  66.773  0.00  0.00    +0.138 A 
ATOM      7  C   UNL     1      -8.799  13.922  67.209  0.00  0.00    +0.086 A 
ATOM      8  C   UNL     1      -7.912  14.936  67.407  0.00  0.00    +0.030 A 
ATOM      9  C   UNL     1      -8.269  16.270  67.245  0.00  0.00    +0.078 A 
ATOM     10  C   UNL     1      -9.405  16.505  66.480  0.00  0.00    +0.137 A 
ATOM     11 CL   UNL     1      -7.713  17.537  68.326  0.00  0.00    -0.081 Cl
ATOM     12  N   UNL     1      -8.507  12.561  66.921  0.00  0.00    -0.219 NA
ATOM     13  C   UNL     1     -10.277  15.464  66.183  0.00  0.00    +0.042 A 
ATOM     14  C   UNL     1      -9.244  11.612  67.957  0.00  0.00    +0.187 C 
ENDROOT
BRANCH  10  15
ATOM     15  S   UNL     1     -10.040  18.124  66.218  0.00  0.00    +0.094 S 
ATOM     16  O   UNL     1      -8.836  18.968  65.856  0.00  0.00    -0.150 OA
ATOM     17  O   UNL     1     -10.956  18.058  65.017  0.00  0.00    -0.150 OA
ATOM     18  N   UNL     1     -10.856  18.723  67.601  0.00  0.00    +0.039 NA
ENDBRANCH  10  15
BRANCH  14  19
ATOM     19  C   UNL     1      -8.702  10.259  67.165  0.00  0.00    +0.135 C 
ATOM     20 CL   UNL     1      -8.778  10.623  65.436  0.00  0.00    -0.110 Cl
ENDBRANCH  14  19
TORSDOF 2
ENDMDL
