MODEL 1
REMARK VINA RESULT:      -8.0      0.000      0.000
REMARK  Name = 
REMARK  10 active torsions:
REMARK  status: ('A' for Active; 'I' for Inactive)
REMARK    1  A    between atoms: C_8  and  C_9
REMARK    2  A    between atoms: N_11  and  C_12
REMARK    3  A    between atoms: C_12  and  C_13
REMARK    4  A    between atoms: C_12  and  C_21
REMARK    5  A    between atoms: C_13  and  S_14
REMARK    6  A    between atoms: S_14  and  C_15
REMARK    7  A    between atoms: C_21  and  C_23
REMARK    8  A    between atoms: C_23  and  N_24
REMARK    9  A    between atoms: C_33  and  C_34
REMARK   10  A    between atoms: N_36  and  C_37
REMARK                            x       y       z     vdW  Elec       q    Type
REMARK                         _______ _______ _______ _____ _____    ______ ____
ROOT
ATOM      1  C   UNL     1     -10.565  14.520  66.817  0.00  0.00    +0.138 C 
ENDROOT
BRANCH   1   3
ATOM      2  C   UNL     1     -11.566  13.776  69.051  0.00  0.00    +0.265 C 
ATOM      3  N   UNL     1     -11.735  14.423  67.843  0.00  0.00    -0.200 NA
ATOM      4  O   UNL     1     -11.090  12.609  68.895  0.00  0.00    -0.268 OA
BRANCH   2   7
ATOM      5  C   UNL     1     -11.212  16.296  70.289  0.00  0.00    +0.035 C 
ATOM      6  C   UNL     1     -11.969  15.364  70.795  0.00  0.00    +0.021 A 
ATOM      7  C   UNL     1     -12.139  14.067  70.338  0.00  0.00    +0.054 A 
ATOM      8  C   UNL     1     -12.895  13.120  70.957  0.00  0.00    +0.004 A 
ATOM      9  C   UNL     1     -13.438  13.466  72.173  0.00  0.00    +0.003 A 
ATOM     10  C   UNL     1     -13.013  14.610  72.834  0.00  0.00    +0.042 A 
ATOM     11  C   UNL     1     -12.424  15.615  72.085  0.00  0.00    +0.192 A 
ATOM     12  O   UNL     1     -11.842  16.666  72.798  0.00  0.00    -0.287 OA
ENDBRANCH   2   7
ENDBRANCH   1   3
BRANCH   1  13
ATOM     13  C   UNL     1     -10.289  16.202  67.028  0.00  0.00    +0.188 C 
ATOM     14  O   UNL     1      -9.811  16.546  65.642  0.00  0.00    -0.220 OA
BRANCH  13  15
ATOM     15  C   UNL     1      -8.770  15.863  67.520  0.00  0.00    +0.108 C 
BRANCH  15  16
ATOM     16  N   UNL     1      -8.129  17.073  67.434  0.00  0.00    -0.264 NA
ATOM     17  C   UNL     1      -6.764  16.586  66.816  0.00  0.00    +0.137 C 
ATOM     18  C   UNL     1      -6.124  18.102  66.759  0.00  0.00    +0.025 C 
ATOM     19  C   UNL     1      -7.447  18.970  66.390  0.00  0.00    +0.003 C 
ATOM     20  C   UNL     1      -7.744  19.449  67.996  0.00  0.00    +0.016 C 
ATOM     21  C   UNL     1      -6.233  19.534  68.554  0.00  0.00    +0.001 C 
ATOM     22  C   UNL     1      -5.422  20.542  67.854  0.00  0.00    +0.000 C 
ATOM     23  C   UNL     1      -6.376  21.235  66.914  0.00  0.00    +0.000 C 
ATOM     24  C   UNL     1      -6.650  20.269  65.872  0.00  0.00    +0.000 C 
ATOM     25  C   UNL     1      -7.904  17.914  68.509  0.00  0.00    +0.072 C 
BRANCH  17  26
ATOM     26  C   UNL     1      -6.116  16.265  68.252  0.00  0.00    +0.256 C 
ATOM     27  N   UNL     1      -4.688  16.403  68.312  0.00  0.00    -0.208 NA
ATOM     28  O   UNL     1      -6.557  15.286  68.885  0.00  0.00    -0.272 OA
BRANCH  27  29
ATOM     29  C   UNL     1      -4.231  16.649  69.683  0.00  0.00    +0.079 C 
ATOM     30  C   UNL     1      -5.385  16.952  70.589  0.00  0.00    +0.022 C 
ATOM     31  C   UNL     1      -3.242  17.799  69.636  0.00  0.00    +0.022 C 
ATOM     32  C   UNL     1      -3.450  15.414  70.081  0.00  0.00    +0.022 C 
ENDBRANCH  27  29
ENDBRANCH  17  26
ENDBRANCH  15  16
ENDBRANCH  13  15
ENDBRANCH   1  13
BRANCH   1  33
ATOM     33  C   UNL     1     -11.579  14.610  65.551  0.00  0.00    +0.086 C 
BRANCH  33  34
ATOM     34  S   UNL     1     -12.394  13.050  65.385  0.00  0.00    -0.112 S 
BRANCH  34  35
ATOM     35  C   UNL     1     -11.166  11.854  64.818  0.00  0.00    +0.025 A 
ATOM     36  C   UNL     1     -10.582  12.085  63.599  0.00  0.00    +0.006 A 
ATOM     37  C   UNL     1      -9.771  11.143  63.015  0.00  0.00    +0.001 A 
ATOM     38  C   UNL     1      -9.376  10.068  63.801  0.00  0.00    +0.000 A 
ATOM     39  C   UNL     1      -9.694  10.055  65.152  0.00  0.00    +0.001 A 
ATOM     40  C   UNL     1     -10.531  10.996  65.711  0.00  0.00    +0.006 A 
ENDBRANCH  34  35
ENDBRANCH  33  34
ENDBRANCH   1  33
TORSDOF 10
ENDMDL
MODEL 2
REMARK VINA RESULT:      -8.0      3.425      8.095
REMARK  Name = 
REMARK  10 active torsions:
REMARK  status: ('A' for Active; 'I' for Inactive)
REMARK    1  A    between atoms: C_8  and  C_9
REMARK    2  A    between atoms: N_11  and  C_12
REMARK    3  A    between atoms: C_12  and  C_13
REMARK    4  A    between atoms: C_12  and  C_21
REMARK    5  A    between atoms: C_13  and  S_14
REMARK    6  A    between atoms: S_14  and  C_15
REMARK    7  A    between atoms: C_21  and  C_23
REMARK    8  A    between atoms: C_23  and  N_24
REMARK    9  A    between atoms: C_33  and  C_34
REMARK   10  A    between atoms: N_36  and  C_37
REMARK                            x       y       z     vdW  Elec       q    Type
REMARK                         _______ _______ _______ _____ _____    ______ ____
ROOT
ATOM      1  C   UNL     1      -9.932  14.061  67.726  0.00  0.00    +0.138 C 
ENDROOT
BRANCH   1   3
ATOM      2  C   UNL     1     -11.284  15.205  69.574  0.00  0.00    +0.265 C 
ATOM      3  N   UNL     1     -10.078  14.684  69.148  0.00  0.00    -0.200 NA
ATOM      4  O   UNL     1     -11.758  16.034  68.737  0.00  0.00    -0.268 OA
BRANCH   2   7
ATOM      5  C   UNL     1     -12.819  13.028  70.529  0.00  0.00    +0.035 C 
ATOM      6  C   UNL     1     -12.520  14.057  71.270  0.00  0.00    +0.021 A 
ATOM      7  C   UNL     1     -11.868  15.218  70.888  0.00  0.00    +0.054 A 
ATOM      8  C   UNL     1     -11.648  16.287  71.700  0.00  0.00    +0.004 A 
ATOM      9  C   UNL     1     -12.210  16.231  72.955  0.00  0.00    +0.003 A 
ATOM     10  C   UNL     1     -13.156  15.263  73.260  0.00  0.00    +0.042 A 
ATOM     11  C   UNL     1     -13.179  14.109  72.494  0.00  0.00    +0.192 A 
ATOM     12  O   UNL     1     -14.255  13.242  72.702  0.00  0.00    -0.287 OA
ENDBRANCH   2   7
ENDBRANCH   1   3
BRANCH   1  13
ATOM     13  C   UNL     1      -8.894  12.779  68.206  0.00  0.00    +0.188 C 
ATOM     14  O   UNL     1      -8.478  12.283  66.846  0.00  0.00    -0.220 OA
BRANCH  13  15
ATOM     15  C   UNL     1     -10.185  11.780  68.227  0.00  0.00    +0.108 C 
BRANCH  15  16
ATOM     16  N   UNL     1      -9.643  10.551  67.944  0.00  0.00    -0.264 NA
ATOM     17  C   UNL     1     -10.947   9.675  68.053  0.00  0.00    +0.137 C 
ATOM     18  C   UNL     1     -10.166   8.273  67.685  0.00  0.00    +0.025 C 
ATOM     19  C   UNL     1      -9.086   8.810  66.598  0.00  0.00    +0.003 C 
ATOM     20  C   UNL     1      -7.808   8.912  67.718  0.00  0.00    +0.016 C 
ATOM     21  C   UNL     1      -8.186   7.685  68.696  0.00  0.00    +0.001 C 
ATOM     22  C   UNL     1      -8.172   6.384  68.010  0.00  0.00    +0.000 C 
ATOM     23  C   UNL     1      -7.675   6.676  66.617  0.00  0.00    +0.000 C 
ATOM     24  C   UNL     1      -8.763   7.368  65.961  0.00  0.00    +0.000 C 
ATOM     25  C   UNL     1      -8.607   9.974  68.655  0.00  0.00    +0.072 C 
BRANCH  17  26
ATOM     26  C   UNL     1     -10.785   9.459  69.638  0.00  0.00    +0.256 C 
ATOM     27  N   UNL     1     -11.298   8.211  70.131  0.00  0.00    -0.208 NA
ATOM     28  O   UNL     1     -11.014  10.430  70.386  0.00  0.00    -0.272 OA
BRANCH  27  29
ATOM     29  C   UNL     1     -10.657   7.829  71.393  0.00  0.00    +0.079 C 
ATOM     30  C   UNL     1      -9.431   8.654  71.645  0.00  0.00    +0.022 C 
ATOM     31  C   UNL     1     -10.326   6.350  71.308  0.00  0.00    +0.022 C 
ATOM     32  C   UNL     1     -11.724   7.979  72.456  0.00  0.00    +0.022 C 
ENDBRANCH  27  29
ENDBRANCH  17  26
ENDBRANCH  15  16
ENDBRANCH  13  15
ENDBRANCH   1  13
BRANCH   1  33
ATOM     33  C   UNL     1      -8.790  15.131  67.289  0.00  0.00    +0.086 C 
BRANCH  33  34
ATOM     34  S   UNL     1      -9.455  16.156  66.011  0.00  0.00    -0.112 S 
BRANCH  34  35
ATOM     35  C   UNL     1      -9.558  17.837  66.662  0.00  0.00    +0.025 A 
ATOM     36  C   UNL     1     -10.461  18.684  66.072  0.00  0.00    +0.006 A 
ATOM     37  C   UNL     1     -10.483  20.021  66.386  0.00  0.00    +0.001 A 
ATOM     38  C   UNL     1      -9.734  20.430  67.481  0.00  0.00    +0.000 A 
ATOM     39  C   UNL     1      -9.114  19.479  68.281  0.00  0.00    +0.001 A 
ATOM     40  C   UNL     1      -9.083  18.146  67.933  0.00  0.00    +0.006 A 
ENDBRANCH  34  35
ENDBRANCH  33  34
ENDBRANCH   1  33
TORSDOF 10
ENDMDL
MODEL 3
REMARK VINA RESULT:      -7.9      1.609      2.215
REMARK  Name = 
REMARK  10 active torsions:
REMARK  status: ('A' for Active; 'I' for Inactive)
REMARK    1  A    between atoms: C_8  and  C_9
REMARK    2  A    between atoms: N_11  and  C_12
REMARK    3  A    between atoms: C_12  and  C_13
REMARK    4  A    between atoms: C_12  and  C_21
REMARK    5  A    between atoms: C_13  and  S_14
REMARK    6  A    between atoms: S_14  and  C_15
REMARK    7  A    between atoms: C_21  and  C_23
REMARK    8  A    between atoms: C_23  and  N_24
REMARK    9  A    between atoms: C_33  and  C_34
REMARK   10  A    between atoms: N_36  and  C_37
REMARK                            x       y       z     vdW  Elec       q    Type
REMARK                         _______ _______ _______ _____ _____    ______ ____
ROOT
ATOM      1  C   UNL     1     -10.472  12.797  67.574  0.00  0.00    +0.138 C 
ENDROOT
BRANCH   1   3
ATOM      2  C   UNL     1     -11.764  12.842  69.783  0.00  0.00    +0.265 C 
ATOM      3  N   UNL     1     -11.730  13.132  68.433  0.00  0.00    -0.200 NA
ATOM      4  O   UNL     1     -11.450  11.633  70.011  0.00  0.00    -0.268 OA
BRANCH   2   7
ATOM      5  C   UNL     1     -11.038  15.499  70.430  0.00  0.00    +0.035 C 
ATOM      6  C   UNL     1     -12.018  14.875  71.018  0.00  0.00    +0.021 A 
ATOM      7  C   UNL     1     -12.400  13.552  70.860  0.00  0.00    +0.054 A 
ATOM      8  C   UNL     1     -13.395  12.943  71.560  0.00  0.00    +0.004 A 
ATOM      9  C   UNL     1     -13.983  13.682  72.561  0.00  0.00    +0.003 A 
ATOM     10  C   UNL     1     -13.407  14.869  72.991  0.00  0.00    +0.042 A 
ATOM     11  C   UNL     1     -12.548  15.528  72.126  0.00  0.00    +0.192 A 
ATOM     12  O   UNL     1     -11.844  16.614  72.652  0.00  0.00    -0.287 OA
ENDBRANCH   2   7
ENDBRANCH   1   3
BRANCH   1  13
ATOM     13  C   UNL     1     -10.511  14.238  66.641  0.00  0.00    +0.188 C 
ATOM     14  O   UNL     1      -9.835  13.737  65.393  0.00  0.00    -0.220 OA
BRANCH  13  15
ATOM     15  C   UNL     1      -9.081  14.670  67.300  0.00  0.00    +0.108 C 
BRANCH  15  16
ATOM     16  N   UNL     1      -9.143  16.041  67.326  0.00  0.00    -0.264 NA
ATOM     17  C   UNL     1      -8.304  16.351  66.030  0.00  0.00    +0.137 C 
ATOM     18  C   UNL     1      -8.471  17.981  66.180  0.00  0.00    +0.025 C 
ATOM     19  C   UNL     1      -9.983  18.073  66.766  0.00  0.00    +0.003 C 
ATOM     20  C   UNL     1      -9.489  18.246  68.386  0.00  0.00    +0.016 C 
ATOM     21  C   UNL     1      -8.111  19.059  68.180  0.00  0.00    +0.001 C 
ATOM     22  C   UNL     1      -8.313  20.376  67.556  0.00  0.00    +0.000 C 
ATOM     23  C   UNL     1      -9.808  20.535  67.443  0.00  0.00    +0.000 C 
ATOM     24  C   UNL     1     -10.209  19.623  66.394  0.00  0.00    +0.000 C 
ATOM     25  C   UNL     1      -8.709  16.819  68.385  0.00  0.00    +0.072 C 
BRANCH  17  26
ATOM     26  C   UNL     1      -6.901  16.328  66.814  0.00  0.00    +0.256 C 
ATOM     27  N   UNL     1      -5.878  17.158  66.242  0.00  0.00    -0.208 NA
ATOM     28  O   UNL     1      -6.485  15.230  67.233  0.00  0.00    -0.272 OA
BRANCH  27  29
ATOM     29  C   UNL     1      -4.872  17.533  67.241  0.00  0.00    +0.079 C 
ATOM     30  C   UNL     1      -5.324  17.171  68.623  0.00  0.00    +0.022 C 
ATOM     31  C   UNL     1      -4.628  19.025  67.106  0.00  0.00    +0.022 C 
ATOM     32  C   UNL     1      -3.595  16.840  66.815  0.00  0.00    +0.022 C 
ENDBRANCH  27  29
ENDBRANCH  17  26
ENDBRANCH  15  16
ENDBRANCH  13  15
ENDBRANCH   1  13
BRANCH   1  33
ATOM     33  C   UNL     1     -11.318  11.845  66.565  0.00  0.00    +0.086 C 
BRANCH  33  34
ATOM     34  S   UNL     1     -10.562  10.247  66.549  0.00  0.00    -0.112 S 
BRANCH  34  35
ATOM     35  C   UNL     1      -9.736  10.055  64.955  0.00  0.00    +0.025 A 
ATOM     36  C   UNL     1      -8.892   8.984  64.810  0.00  0.00    +0.006 A 
ATOM     37  C   UNL     1      -8.094   8.858  63.699  0.00  0.00    +0.001 A 
ATOM     38  C   UNL     1      -8.348   9.713  62.634  0.00  0.00    +0.000 A 
ATOM     39  C   UNL     1      -9.456  10.549  62.676  0.00  0.00    +0.001 A 
ATOM     40  C   UNL     1     -10.227  10.678  63.811  0.00  0.00    +0.006 A 
ENDBRANCH  34  35
ENDBRANCH  33  34
ENDBRANCH   1  33
TORSDOF 10
ENDMDL
MODEL 4
REMARK VINA RESULT:      -7.9      3.972      7.966
REMARK  Name = 
REMARK  10 active torsions:
REMARK  status: ('A' for Active; 'I' for Inactive)
REMARK    1  A    between atoms: C_8  and  C_9
REMARK    2  A    between atoms: N_11  and  C_12
REMARK    3  A    between atoms: C_12  and  C_13
REMARK    4  A    between atoms: C_12  and  C_21
REMARK    5  A    between atoms: C_13  and  S_14
REMARK    6  A    between atoms: S_14  and  C_15
REMARK    7  A    between atoms: C_21  and  C_23
REMARK    8  A    between atoms: C_23  and  N_24
REMARK    9  A    between atoms: C_33  and  C_34
REMARK   10  A    between atoms: N_36  and  C_37
REMARK                            x       y       z     vdW  Elec       q    Type
REMARK                         _______ _______ _______ _____ _____    ______ ____
ROOT
ATOM      1  C   UNL     1      -9.938  13.147  67.645  0.00  0.00    +0.138 C 
ENDROOT
BRANCH   1   3
ATOM      2  C   UNL     1     -11.303  14.554  69.290  0.00  0.00    +0.265 C 
ATOM      3  N   UNL     1     -10.082  14.017  68.930  0.00  0.00    -0.200 NA
ATOM      4  O   UNL     1     -11.835  15.191  68.329  0.00  0.00    -0.268 OA
BRANCH   2   7
ATOM      5  C   UNL     1     -12.796  12.562  70.634  0.00  0.00    +0.035 C 
ATOM      6  C   UNL     1     -12.490  13.702  71.184  0.00  0.00    +0.021 A 
ATOM      7  C   UNL     1     -11.857  14.786  70.597  0.00  0.00    +0.054 A 
ATOM      8  C   UNL     1     -11.629  15.977  71.212  0.00  0.00    +0.004 A 
ATOM      9  C   UNL     1     -12.162  16.130  72.471  0.00  0.00    +0.003 A 
ATOM     10  C   UNL     1     -13.093  15.223  72.957  0.00  0.00    +0.042 A 
ATOM     11  C   UNL     1     -13.122  13.956  72.397  0.00  0.00    +0.192 A 
ATOM     12  O   UNL     1     -14.186  13.132  72.773  0.00  0.00    -0.287 OA
ENDBRANCH   2   7
ENDBRANCH   1   3
BRANCH   1  13
ATOM     13  C   UNL     1      -8.751  12.084  68.288  0.00  0.00    +0.188 C 
ATOM     14  O   UNL     1      -7.788  12.067  67.131  0.00  0.00    -0.220 OA
BRANCH  13  15
ATOM     15  C   UNL     1      -9.587  10.824  67.672  0.00  0.00    +0.108 C 
BRANCH  15  16
ATOM     16  N   UNL     1      -9.759   9.996  68.753  0.00  0.00    -0.264 NA
ATOM     17  C   UNL     1      -8.480   9.094  68.579  0.00  0.00    +0.137 C 
ATOM     18  C   UNL     1      -8.806   8.187  69.914  0.00  0.00    +0.025 C 
ATOM     19  C   UNL     1      -9.439   9.316  70.895  0.00  0.00    +0.003 C 
ATOM     20  C   UNL     1     -11.054   8.902  70.551  0.00  0.00    +0.016 C 
ATOM     21  C   UNL     1     -10.897   7.314  70.308  0.00  0.00    +0.001 C 
ATOM     22  C   UNL     1     -10.420   6.599  71.502  0.00  0.00    +0.000 C 
ATOM     23  C   UNL     1     -10.365   7.639  72.592  0.00  0.00    +0.000 C 
ATOM     24  C   UNL     1      -9.237   8.482  72.257  0.00  0.00    +0.000 C 
ATOM     25  C   UNL     1     -10.881   9.215  68.965  0.00  0.00    +0.072 C 
BRANCH  17  26
ATOM     26  C   UNL     1      -9.219   8.068  67.587  0.00  0.00    +0.256 C 
ATOM     27  N   UNL     1      -8.715   6.724  67.625  0.00  0.00    -0.208 NA
ATOM     28  O   UNL     1      -9.505   8.469  66.441  0.00  0.00    -0.272 OA
BRANCH  27  29
ATOM     29  C   UNL     1      -9.720   5.761  67.167  0.00  0.00    +0.079 C 
ATOM     30  C   UNL     1     -11.067   6.406  67.044  0.00  0.00    +0.022 C 
ATOM     31  C   UNL     1      -9.740   4.614  68.161  0.00  0.00    +0.022 C 
ATOM     32  C   UNL     1      -9.189   5.203  65.864  0.00  0.00    +0.022 C 
ENDBRANCH  27  29
ENDBRANCH  17  26
ENDBRANCH  15  16
ENDBRANCH  13  15
ENDBRANCH   1  13
BRANCH   1  33
ATOM     33  C   UNL     1      -8.934  14.214  66.941  0.00  0.00    +0.086 C 
BRANCH  33  34
ATOM     34  S   UNL     1      -9.815  15.025  65.640  0.00  0.00    -0.112 S 
BRANCH  34  35
ATOM     35  C   UNL     1     -10.846  13.785  64.829  0.00  0.00    +0.025 A 
ATOM     36  C   UNL     1     -10.203  12.762  64.179  0.00  0.00    +0.006 A 
ATOM     37  C   UNL     1     -10.898  11.876  63.394  0.00  0.00    +0.001 A 
ATOM     38  C   UNL     1     -12.285  11.908  63.473  0.00  0.00    +0.000 A 
ATOM     39  C   UNL     1     -12.898  12.718  64.420  0.00  0.00    +0.001 A 
ATOM     40  C   UNL     1     -12.182  13.618  65.180  0.00  0.00    +0.006 A 
ENDBRANCH  34  35
ENDBRANCH  33  34
ENDBRANCH   1  33
TORSDOF 10
ENDMDL
MODEL 5
REMARK VINA RESULT:      -7.9      3.735      8.389
REMARK  Name = 
REMARK  10 active torsions:
REMARK  status: ('A' for Active; 'I' for Inactive)
REMARK    1  A    between atoms: C_8  and  C_9
REMARK    2  A    between atoms: N_11  and  C_12
REMARK    3  A    between atoms: C_12  and  C_13
REMARK    4  A    between atoms: C_12  and  C_21
REMARK    5  A    between atoms: C_13  and  S_14
REMARK    6  A    between atoms: S_14  and  C_15
REMARK    7  A    between atoms: C_21  and  C_23
REMARK    8  A    between atoms: C_23  and  N_24
REMARK    9  A    between atoms: C_33  and  C_34
REMARK   10  A    between atoms: N_36  and  C_37
REMARK                            x       y       z     vdW  Elec       q    Type
REMARK                         _______ _______ _______ _____ _____    ______ ____
ROOT
ATOM      1  C   UNL     1      -9.769  13.486  67.586  0.00  0.00    +0.138 C 
ENDROOT
BRANCH   1   3
ATOM      2  C   UNL     1     -11.251  14.706  69.278  0.00  0.00    +0.265 C 
ATOM      3  N   UNL     1      -9.994  14.260  68.920  0.00  0.00    -0.200 NA
ATOM      4  O   UNL     1     -11.794  15.375  68.346  0.00  0.00    -0.268 OA
BRANCH   2   7
ATOM      5  C   UNL     1     -12.587  12.524  70.487  0.00  0.00    +0.035 C 
ATOM      6  C   UNL     1     -12.396  13.657  71.099  0.00  0.00    +0.021 A 
ATOM      7  C   UNL     1     -11.850  14.822  70.581  0.00  0.00    +0.054 A 
ATOM      8  C   UNL     1     -11.742  15.995  71.259  0.00  0.00    +0.004 A 
ATOM      9  C   UNL     1     -12.312  16.037  72.511  0.00  0.00    +0.003 A 
ATOM     10  C   UNL     1     -13.167  15.027  72.929  0.00  0.00    +0.042 A 
ATOM     11  C   UNL     1     -13.072  13.793  72.307  0.00  0.00    +0.192 A 
ATOM     12  O   UNL     1     -14.064  12.859  72.617  0.00  0.00    -0.287 OA
ENDBRANCH   2   7
ENDBRANCH   1   3
BRANCH   1  13
ATOM     13  C   UNL     1      -8.734  12.289  68.254  0.00  0.00    +0.188 C 
ATOM     14  O   UNL     1      -7.764  12.143  67.112  0.00  0.00    -0.220 OA
BRANCH  13  15
ATOM     15  C   UNL     1      -9.711  11.138  67.634  0.00  0.00    +0.108 C 
BRANCH  15  16
ATOM     16  N   UNL     1      -9.877  10.262  68.678  0.00  0.00    -0.264 NA
ATOM     17  C   UNL     1      -8.545   9.436  68.521  0.00  0.00    +0.137 C 
ATOM     18  C   UNL     1      -8.869   8.464  69.809  0.00  0.00    +0.025 C 
ATOM     19  C   UNL     1      -9.597   9.522  70.805  0.00  0.00    +0.003 C 
ATOM     20  C   UNL     1     -11.173   9.036  70.387  0.00  0.00    +0.016 C 
ATOM     21  C   UNL     1     -10.923   7.469  70.095  0.00  0.00    +0.001 C 
ATOM     22  C   UNL     1     -10.451   6.736  71.280  0.00  0.00    +0.000 C 
ATOM     23  C   UNL     1     -10.491   7.737  72.406  0.00  0.00    +0.000 C 
ATOM     24  C   UNL     1      -9.399   8.649  72.143  0.00  0.00    +0.000 C 
ATOM     25  C   UNL     1     -10.962   9.416  68.820  0.00  0.00    +0.072 C 
BRANCH  17  26
ATOM     26  C   UNL     1      -9.192   8.410  67.466  0.00  0.00    +0.256 C 
ATOM     27  N   UNL     1      -8.663   7.076  67.521  0.00  0.00    -0.208 NA
ATOM     28  O   UNL     1      -9.407   8.821  66.308  0.00  0.00    -0.272 OA
BRANCH  27  29
ATOM     29  C   UNL     1      -9.614   6.099  66.982  0.00  0.00    +0.079 C 
ATOM     30  C   UNL     1     -10.987   6.688  66.874  0.00  0.00    +0.022 C 
ATOM     31  C   UNL     1      -9.596   4.890  67.899  0.00  0.00    +0.022 C 
ATOM     32  C   UNL     1      -9.035   5.652  65.656  0.00  0.00    +0.022 C 
ENDBRANCH  27  29
ENDBRANCH  17  26
ENDBRANCH  15  16
ENDBRANCH  13  15
ENDBRANCH   1  13
BRANCH   1  33
ATOM     33  C   UNL     1      -8.626  14.526  67.084  0.00  0.00    +0.086 C 
BRANCH  33  34
ATOM     34  S   UNL     1      -9.362  15.635  65.921  0.00  0.00    -0.112 S 
BRANCH  34  35
ATOM     35  C   UNL     1      -9.445  17.261  66.700  0.00  0.00    +0.025 A 
ATOM     36  C   UNL     1     -10.370  18.146  66.208  0.00  0.00    +0.006 A 
ATOM     37  C   UNL     1     -10.385  19.455  66.621  0.00  0.00    +0.001 A 
ATOM     38  C   UNL     1      -9.598  19.785  67.718  0.00  0.00    +0.000 A 
ATOM     39  C   UNL     1      -8.949  18.779  68.421  0.00  0.00    +0.001 A 
ATOM     40  C   UNL     1      -8.926  17.476  67.973  0.00  0.00    +0.006 A 
ENDBRANCH  34  35
ENDBRANCH  33  34
ENDBRANCH   1  33
TORSDOF 10
ENDMDL
MODEL 6
REMARK VINA RESULT:      -7.8      3.928      7.612
REMARK  Name = 
REMARK  10 active torsions:
REMARK  status: ('A' for Active; 'I' for Inactive)
REMARK    1  A    between atoms: C_8  and  C_9
REMARK    2  A    between atoms: N_11  and  C_12
REMARK    3  A    between atoms: C_12  and  C_13
REMARK    4  A    between atoms: C_12  and  C_21
REMARK    5  A    between atoms: C_13  and  S_14
REMARK    6  A    between atoms: S_14  and  C_15
REMARK    7  A    between atoms: C_21  and  C_23
REMARK    8  A    between atoms: C_23  and  N_24
REMARK    9  A    between atoms: C_33  and  C_34
REMARK   10  A    between atoms: N_36  and  C_37
REMARK                            x       y       z     vdW  Elec       q    Type
REMARK                         _______ _______ _______ _____ _____    ______ ____
ROOT
ATOM      1  C   UNL     1      -9.842  13.385  67.573  0.00  0.00    +0.138 C 
ENDROOT
BRANCH   1   3
ATOM      2  C   UNL     1     -11.282  14.692  69.237  0.00  0.00    +0.265 C 
ATOM      3  N   UNL     1     -10.029  14.259  68.851  0.00  0.00    -0.200 NA
ATOM      4  O   UNL     1     -11.893  15.266  68.284  0.00  0.00    -0.268 OA
BRANCH   2   7
ATOM      5  C   UNL     1     -12.744  12.665  70.562  0.00  0.00    +0.035 C 
ATOM      6  C   UNL     1     -12.438  13.795  71.130  0.00  0.00    +0.021 A 
ATOM      7  C   UNL     1     -11.819  14.895  70.556  0.00  0.00    +0.054 A 
ATOM      8  C   UNL     1     -11.590  16.075  71.192  0.00  0.00    +0.004 A 
ATOM      9  C   UNL     1     -12.107  16.200  72.461  0.00  0.00    +0.003 A 
ATOM     10  C   UNL     1     -13.025  15.277  72.941  0.00  0.00    +0.042 A 
ATOM     11  C   UNL     1     -13.055  14.022  72.356  0.00  0.00    +0.192 A 
ATOM     12  O   UNL     1     -14.108  13.183  72.730  0.00  0.00    -0.287 OA
ENDBRANCH   2   7
ENDBRANCH   1   3
BRANCH   1  13
ATOM     13  C   UNL     1      -8.547  12.444  68.195  0.00  0.00    +0.188 C 
ATOM     14  O   UNL     1      -8.032  11.860  66.906  0.00  0.00    -0.220 OA
BRANCH  13  15
ATOM     15  C   UNL     1      -9.585  11.201  68.397  0.00  0.00    +0.108 C 
BRANCH  15  16
ATOM     16  N   UNL     1      -8.760  10.130  68.635  0.00  0.00    -0.264 NA
ATOM     17  C   UNL     1      -9.683   8.980  68.083  0.00  0.00    +0.137 C 
ATOM     18  C   UNL     1      -8.587   7.796  68.412  0.00  0.00    +0.025 C 
ATOM     19  C   UNL     1      -7.199   8.575  68.088  0.00  0.00    +0.003 C 
ATOM     20  C   UNL     1      -6.875   8.953  69.716  0.00  0.00    +0.016 C 
ATOM     21  C   UNL     1      -7.516   7.663  70.442  0.00  0.00    +0.001 C 
ATOM     22  C   UNL     1      -6.855   6.406  70.060  0.00  0.00    +0.000 C 
ATOM     23  C   UNL     1      -5.698   6.817  69.185  0.00  0.00    +0.000 C 
ATOM     24  C   UNL     1      -6.297   7.250  67.941  0.00  0.00    +0.000 C 
ATOM     25  C   UNL     1      -8.256   9.797  69.879  0.00  0.00    +0.072 C 
BRANCH  17  26
ATOM     26  C   UNL     1     -10.449   8.790  69.483  0.00  0.00    +0.256 C 
ATOM     27  N   UNL     1     -10.902   7.452  69.745  0.00  0.00    -0.208 NA
ATOM     28  O   UNL     1     -11.256   9.674  69.831  0.00  0.00    -0.272 OA
BRANCH  27  29
ATOM     29  C   UNL     1     -11.069   7.215  71.182  0.00  0.00    +0.079 C 
ATOM     30  C   UNL     1     -10.477   8.333  71.985  0.00  0.00    +0.022 C 
ATOM     31  C   UNL     1     -10.411   5.887  71.506  0.00  0.00    +0.022 C 
ATOM     32  C   UNL     1     -12.557   7.030  71.395  0.00  0.00    +0.022 C 
ENDBRANCH  27  29
ENDBRANCH  17  26
ENDBRANCH  15  16
ENDBRANCH  13  15
ENDBRANCH   1  13
BRANCH   1  33
ATOM     33  C   UNL     1      -8.960  14.528  66.827  0.00  0.00    +0.086 C 
BRANCH  33  34
ATOM     34  S   UNL     1      -9.937  15.215  65.523  0.00  0.00    -0.112 S 
BRANCH  34  35
ATOM     35  C   UNL     1     -10.885  13.866  64.787  0.00  0.00    +0.025 A 
ATOM     36  C   UNL     1     -10.178  12.849  64.200  0.00  0.00    +0.006 A 
ATOM     37  C   UNL     1     -10.815  11.877  63.469  0.00  0.00    +0.001 A 
ATOM     38  C   UNL     1     -12.201  11.826  63.548  0.00  0.00    +0.000 A 
ATOM     39  C   UNL     1     -12.865  12.651  64.445  0.00  0.00    +0.001 A 
ATOM     40  C   UNL     1     -12.209  13.637  65.150  0.00  0.00    +0.006 A 
ENDBRANCH  34  35
ENDBRANCH  33  34
ENDBRANCH   1  33
TORSDOF 10
ENDMDL
MODEL 7
REMARK VINA RESULT:      -7.7      1.913      2.617
REMARK  Name = 
REMARK  10 active torsions:
REMARK  status: ('A' for Active; 'I' for Inactive)
REMARK    1  A    between atoms: C_8  and  C_9
REMARK    2  A    between atoms: N_11  and  C_12
REMARK    3  A    between atoms: C_12  and  C_13
REMARK    4  A    between atoms: C_12  and  C_21
REMARK    5  A    between atoms: C_13  and  S_14
REMARK    6  A    between atoms: S_14  and  C_15
REMARK    7  A    between atoms: C_21  and  C_23
REMARK    8  A    between atoms: C_23  and  N_24
REMARK    9  A    between atoms: C_33  and  C_34
REMARK   10  A    between atoms: N_36  and  C_37
REMARK                            x       y       z     vdW  Elec       q    Type
REMARK                         _______ _______ _______ _____ _____    ______ ____
ROOT
ATOM      1  C   UNL     1     -10.369  12.542  66.805  0.00  0.00    +0.138 C 
ENDROOT
BRANCH   1   3
ATOM      2  C   UNL     1     -11.416  12.237  69.120  0.00  0.00    +0.265 C 
ATOM      3  N   UNL     1     -11.594  12.415  67.762  0.00  0.00    -0.200 NA
ATOM      4  O   UNL     1     -10.629  11.272  69.367  0.00  0.00    -0.268 OA
BRANCH   2   7
ATOM      5  C   UNL     1     -12.024  14.985  69.417  0.00  0.00    +0.035 C 
ATOM      6  C   UNL     1     -12.509  14.069  70.205  0.00  0.00    +0.021 A 
ATOM      7  C   UNL     1     -12.208  12.716  70.222  0.00  0.00    +0.054 A 
ATOM      8  C   UNL     1     -12.702  11.823  71.120  0.00  0.00    +0.004 A 
ATOM      9  C   UNL     1     -13.474  12.338  72.137  0.00  0.00    +0.003 A 
ATOM     10  C   UNL     1     -13.514  13.705  72.368  0.00  0.00    +0.042 A 
ATOM     11  C   UNL     1     -13.178  14.553  71.324  0.00  0.00    +0.192 A 
ATOM     12  O   UNL     1     -13.046  15.908  71.638  0.00  0.00    -0.287 OA
ENDBRANCH   2   7
ENDBRANCH   1   3
BRANCH   1  13
ATOM     13  C   UNL     1     -10.671  14.173  66.356  0.00  0.00    +0.188 C 
ATOM     14  O   UNL     1     -10.118  14.144  64.955  0.00  0.00    -0.220 OA
BRANCH  13  15
ATOM     15  C   UNL     1      -9.216  14.582  66.972  0.00  0.00    +0.108 C 
BRANCH  15  16
ATOM     16  N   UNL     1      -9.290  15.947  67.089  0.00  0.00    -0.264 NA
ATOM     17  C   UNL     1      -8.123  16.343  66.108  0.00  0.00    +0.137 C 
ATOM     18  C   UNL     1      -8.336  17.960  66.334  0.00  0.00    +0.025 C 
ATOM     19  C   UNL     1      -9.953  18.031  66.478  0.00  0.00    +0.003 C 
ATOM     20  C   UNL     1      -9.934  18.069  68.179  0.00  0.00    +0.016 C 
ATOM     21  C   UNL     1      -8.558  18.874  68.433  0.00  0.00    +0.001 C 
ATOM     22  C   UNL     1      -8.585  20.237  67.883  0.00  0.00    +0.000 C 
ATOM     23  C   UNL     1      -9.989  20.429  67.368  0.00  0.00    +0.000 C 
ATOM     24  C   UNL     1     -10.075  19.608  66.180  0.00  0.00    +0.000 C 
ATOM     25  C   UNL     1      -9.176  16.634  68.284  0.00  0.00    +0.072 C 
BRANCH  17  26
ATOM     26  C   UNL     1      -6.997  16.237  67.250  0.00  0.00    +0.256 C 
ATOM     27  N   UNL     1      -5.895  17.146  67.096  0.00  0.00    -0.208 NA
ATOM     28  O   UNL     1      -6.663  15.099  67.636  0.00  0.00    -0.272 OA
BRANCH  27  29
ATOM     29  C   UNL     1      -5.228  17.401  68.375  0.00  0.00    +0.079 C 
ATOM     30  C   UNL     1      -6.070  16.935  69.524  0.00  0.00    +0.022 C 
ATOM     31  C   UNL     1      -4.951  18.891  68.457  0.00  0.00    +0.022 C 
ATOM     32  C   UNL     1      -3.885  16.710  68.282  0.00  0.00    +0.022 C 
ENDBRANCH  27  29
ENDBRANCH  17  26
ENDBRANCH  15  16
ENDBRANCH  13  15
ENDBRANCH   1  13
BRANCH   1  33
ATOM     33  C   UNL     1     -11.153  11.817  65.580  0.00  0.00    +0.086 C 
BRANCH  33  34
ATOM     34  S   UNL     1     -10.154  10.477  65.003  0.00  0.00    -0.112 S 
BRANCH  34  35
ATOM     35  C   UNL     1      -9.616   9.540  66.449  0.00  0.00    +0.025 A 
ATOM     36  C   UNL     1     -10.487   8.607  66.951  0.00  0.00    +0.006 A 
ATOM     37  C   UNL     1     -10.234   7.975  68.144  0.00  0.00    +0.001 A 
ATOM     38  C   UNL     1      -8.968   8.134  68.693  0.00  0.00    +0.000 A 
ATOM     39  C   UNL     1      -7.987   8.797  67.968  0.00  0.00    +0.001 A 
ATOM     40  C   UNL     1      -8.269   9.446  66.786  0.00  0.00    +0.006 A 
ENDBRANCH  34  35
ENDBRANCH  33  34
ENDBRANCH   1  33
TORSDOF 10
ENDMDL
MODEL 8
REMARK VINA RESULT:      -7.6      3.905      8.255
REMARK  Name = 
REMARK  10 active torsions:
REMARK  status: ('A' for Active; 'I' for Inactive)
REMARK    1  A    between atoms: C_8  and  C_9
REMARK    2  A    between atoms: N_11  and  C_12
REMARK    3  A    between atoms: C_12  and  C_13
REMARK    4  A    between atoms: C_12  and  C_21
REMARK    5  A    between atoms: C_13  and  S_14
REMARK    6  A    between atoms: S_14  and  C_15
REMARK    7  A    between atoms: C_21  and  C_23
REMARK    8  A    between atoms: C_23  and  N_24
REMARK    9  A    between atoms: C_33  and  C_34
REMARK   10  A    between atoms: N_36  and  C_37
REMARK                            x       y       z     vdW  Elec       q    Type
REMARK                         _______ _______ _______ _____ _____    ______ ____
ROOT
ATOM      1  C   UNL     1      -9.830  13.136  67.396  0.00  0.00    +0.138 C 
ENDROOT
BRANCH   1   3
ATOM      2  C   UNL     1     -11.599  14.027  69.018  0.00  0.00    +0.265 C 
ATOM      3  N   UNL     1     -10.271  13.964  68.642  0.00  0.00    -0.200 NA
ATOM      4  O   UNL     1     -12.345  14.361  68.046  0.00  0.00    -0.268 OA
BRANCH   2   7
ATOM      5  C   UNL     1     -11.430  16.398  70.553  0.00  0.00    +0.035 C 
ATOM      6  C   UNL     1     -12.107  15.355  70.942  0.00  0.00    +0.021 A 
ATOM      7  C   UNL     1     -12.180  14.113  70.331  0.00  0.00    +0.054 A 
ATOM      8  C   UNL     1     -12.853  13.042  70.829  0.00  0.00    +0.004 A 
ATOM      9  C   UNL     1     -13.410  13.194  72.079  0.00  0.00    +0.003 A 
ATOM     10  C   UNL     1     -13.069  14.279  72.874  0.00  0.00    +0.042 A 
ATOM     11  C   UNL     1     -12.567  15.411  72.253  0.00  0.00    +0.192 A 
ATOM     12  O   UNL     1     -12.062  16.410  73.089  0.00  0.00    -0.287 OA
ENDBRANCH   2   7
ENDBRANCH   1   3
BRANCH   1  13
ATOM     13  C   UNL     1      -8.661  12.189  68.224  0.00  0.00    +0.188 C 
ATOM     14  O   UNL     1      -7.980  11.555  67.040  0.00  0.00    -0.220 OA
BRANCH  13  15
ATOM     15  C   UNL     1      -9.747  10.973  68.310  0.00  0.00    +0.108 C 
BRANCH  15  16
ATOM     16  N   UNL     1      -8.980   9.882  68.634  0.00  0.00    -0.264 NA
ATOM     17  C   UNL     1      -9.971   8.743  68.186  0.00  0.00    +0.137 C 
ATOM     18  C   UNL     1      -8.940   7.531  68.608  0.00  0.00    +0.025 C 
ATOM     19  C   UNL     1      -7.514   8.201  68.213  0.00  0.00    +0.003 C 
ATOM     20  C   UNL     1      -7.153   8.695  69.801  0.00  0.00    +0.016 C 
ATOM     21  C   UNL     1      -7.858   7.509  70.637  0.00  0.00    +0.001 C 
ATOM     22  C   UNL     1      -7.272   6.189  70.359  0.00  0.00    +0.000 C 
ATOM     23  C   UNL     1      -6.103   6.459  69.447  0.00  0.00    +0.000 C 
ATOM     24  C   UNL     1      -6.689   6.819  68.174  0.00  0.00    +0.000 C 
ATOM     25  C   UNL     1      -8.483   9.626  69.899  0.00  0.00    +0.072 C 
BRANCH  17  26
ATOM     26  C   UNL     1     -10.732   8.715  69.601  0.00  0.00    +0.256 C 
ATOM     27  N   UNL     1     -11.314   7.448  69.947  0.00  0.00    -0.208 NA
ATOM     28  O   UNL     1     -11.442   9.695  69.901  0.00  0.00    -0.272 OA
BRANCH  27  29
ATOM     29  C   UNL     1     -11.485   7.315  71.397  0.00  0.00    +0.079 C 
ATOM     30  C   UNL     1     -10.795   8.428  72.125  0.00  0.00    +0.022 C 
ATOM     31  C   UNL     1     -10.933   5.959  71.799  0.00  0.00    +0.022 C 
ATOM     32  C   UNL     1     -12.980   7.267  71.630  0.00  0.00    +0.022 C 
ENDBRANCH  27  29
ENDBRANCH  17  26
ENDBRANCH  15  16
ENDBRANCH  13  15
ENDBRANCH   1  13
BRANCH   1  33
ATOM     33  C   UNL     1      -8.843  14.312  66.867  0.00  0.00    +0.086 C 
BRANCH  33  34
ATOM     34  S   UNL     1      -9.789  15.417  65.862  0.00  0.00    -0.112 S 
BRANCH  34  35
ATOM     35  C   UNL     1      -9.824  17.015  66.700  0.00  0.00    +0.025 A 
ATOM     36  C   UNL     1      -8.854  17.253  67.639  0.00  0.00    +0.006 A 
ATOM     37  C   UNL     1      -8.907  18.365  68.443  0.00  0.00    +0.001 A 
ATOM     38  C   UNL     1      -9.831  19.348  68.111  0.00  0.00    +0.000 A 
ATOM     39  C   UNL     1     -10.554  19.236  66.931  0.00  0.00    +0.001 A 
ATOM     40  C   UNL     1     -10.504  18.100  66.153  0.00  0.00    +0.006 A 
ENDBRANCH  34  35
ENDBRANCH  33  34
ENDBRANCH   1  33
TORSDOF 10
ENDMDL
MODEL 9
REMARK VINA RESULT:      -7.3      5.189     10.565
REMARK  Name = 
REMARK  10 active torsions:
REMARK  status: ('A' for Active; 'I' for Inactive)
REMARK    1  A    between atoms: C_8  and  C_9
REMARK    2  A    between atoms: N_11  and  C_12
REMARK    3  A    between atoms: C_12  and  C_13
REMARK    4  A    between atoms: C_12  and  C_21
REMARK    5  A    between atoms: C_13  and  S_14
REMARK    6  A    between atoms: S_14  and  C_15
REMARK    7  A    between atoms: C_21  and  C_23
REMARK    8  A    between atoms: C_23  and  N_24
REMARK    9  A    between atoms: C_33  and  C_34
REMARK   10  A    between atoms: N_36  and  C_37
REMARK                            x       y       z     vdW  Elec       q    Type
REMARK                         _______ _______ _______ _____ _____    ______ ____
ROOT
ATOM      1  C   UNL     1     -10.558  11.472  68.825  0.00  0.00    +0.138 C 
ENDROOT
BRANCH   1   3
ATOM      2  C   UNL     1      -9.757  11.383  66.396  0.00  0.00    +0.265 C 
ATOM      3  N   UNL     1     -10.736  11.088  67.325  0.00  0.00    -0.200 NA
ATOM      4  O   UNL     1      -9.419  12.606  66.446  0.00  0.00    -0.268 OA
BRANCH   2   7
ATOM      5  C   UNL     1      -7.637   9.513  66.493  0.00  0.00    +0.035 C 
ATOM      6  C   UNL     1      -8.358   9.703  65.425  0.00  0.00    +0.021 A 
ATOM      7  C   UNL     1      -9.348  10.653  65.227  0.00  0.00    +0.054 A 
ATOM      8  C   UNL     1     -10.017  10.843  64.058  0.00  0.00    +0.004 A 
ATOM      9  C   UNL     1      -9.597  10.097  62.981  0.00  0.00    +0.003 A 
ATOM     10  C   UNL     1      -8.398   9.400  63.032  0.00  0.00    +0.042 A 
ATOM     11  C   UNL     1      -7.884   9.077  64.278  0.00  0.00    +0.192 A 
ATOM     12  O   UNL     1      -6.592   8.545  64.301  0.00  0.00    -0.287 OA
ENDBRANCH   2   7
ENDBRANCH   1   3
BRANCH   1  13
ATOM     13  C   UNL     1     -11.340  10.077  69.454  0.00  0.00    +0.188 C 
ATOM     14  O   UNL     1     -11.620  10.566  70.851  0.00  0.00    -0.220 OA
BRANCH  13  15
ATOM     15  C   UNL     1      -9.882   9.494  69.899  0.00  0.00    +0.108 C 
BRANCH  15  16
ATOM     16  N   UNL     1      -9.820   8.275  69.272  0.00  0.00    -0.264 NA
ATOM     17  C   UNL     1     -11.138   7.634  69.848  0.00  0.00    +0.137 C 
ATOM     18  C   UNL     1     -10.943   6.224  69.022  0.00  0.00    +0.025 C 
ATOM     19  C   UNL     1     -10.301   6.776  67.636  0.00  0.00    +0.003 C 
ATOM     20  C   UNL     1      -8.697   6.423  68.081  0.00  0.00    +0.016 C 
ATOM     21  C   UNL     1      -8.933   5.107  68.984  0.00  0.00    +0.001 C 
ATOM     22  C   UNL     1      -9.518   3.992  68.225  0.00  0.00    +0.000 C 
ATOM     23  C   UNL     1      -9.573   4.471  66.796  0.00  0.00    +0.000 C 
ATOM     24  C   UNL     1     -10.628   5.461  66.768  0.00  0.00    +0.000 C 
ATOM     25  C   UNL     1      -8.760   7.394  69.386  0.00  0.00    +0.072 C 
BRANCH  17  26
ATOM     26  C   UNL     1     -10.406   7.073  71.165  0.00  0.00    +0.256 C 
ATOM     27  N   UNL     1     -10.970   5.866  71.700  0.00  0.00    -0.208 NA
ATOM     28  O   UNL     1     -10.057   7.897  72.034  0.00  0.00    -0.272 OA
BRANCH  27  29
ATOM     29  C   UNL     1      -9.991   5.125  72.499  0.00  0.00    +0.079 C 
ATOM     30  C   UNL     1      -8.618   5.704  72.341  0.00  0.00    +0.022 C 
ATOM     31  C   UNL     1     -10.039   3.676  72.052  0.00  0.00    +0.022 C 
ATOM     32  C   UNL     1     -10.510   5.163  73.921  0.00  0.00    +0.022 C 
ENDBRANCH  27  29
ENDBRANCH  17  26
ENDBRANCH  15  16
ENDBRANCH  13  15
ENDBRANCH   1  13
BRANCH   1  33
ATOM     33  C   UNL     1     -11.842  12.467  68.804  0.00  0.00    +0.086 C 
BRANCH  33  34
ATOM     34  S   UNL     1     -11.277  14.104  69.159  0.00  0.00    -0.112 S 
BRANCH  34  35
ATOM     35  C   UNL     1     -12.042  14.617  70.712  0.00  0.00    +0.025 A 
ATOM     36  C   UNL     1     -12.845  13.704  71.347  0.00  0.00    +0.006 A 
ATOM     37  C   UNL     1     -13.600  14.065  72.436  0.00  0.00    +0.001 A 
ATOM     38  C   UNL     1     -13.340  15.304  73.008  0.00  0.00    +0.000 A 
ATOM     39  C   UNL     1     -12.263  16.055  72.555  0.00  0.00    +0.001 A 
ATOM     40  C   UNL     1     -11.535  15.685  71.445  0.00  0.00    +0.006 A 
ENDBRANCH  34  35
ENDBRANCH  33  34
ENDBRANCH   1  33
TORSDOF 10
ENDMDL
