MODEL 1
REMARK VINA RESULT:      -5.8      0.000      0.000
REMARK  Name = 
REMARK  7 active torsions:
REMARK  status: ('A' for Active; 'I' for Inactive)
REMARK    1  A    between atoms: C_2  and  C_3
REMARK    2  A    between atoms: C_3  and  N_4
REMARK    3  A    between atoms: N_4  and  C_5
REMARK    4  A    between atoms: N_4  and  S_8
REMARK    5  A    between atoms: C_5  and  C_6
REMARK    6  A    between atoms: S_8  and  C_11
REMARK    7  A    between atoms: C_14  and  C_15
REMARK                            x       y       z     vdW  Elec       q    Type
REMARK                         _______ _______ _______ _____ _____    ______ ____
ROOT
ATOM      1  S   UNL     1     -11.285  13.185  67.186  0.00  0.00    +0.063 S 
ATOM      2  O   UNL     1      -9.838  12.806  66.968  0.00  0.00    -0.153 OA
ATOM      3  O   UNL     1     -12.075  11.902  67.092  0.00  0.00    -0.153 OA
ENDROOT
BRANCH   1   4
ATOM      4  C   UNL     1     -11.398  13.894  68.770  0.00  0.00    +0.122 A 
ATOM      5  C   UNL     1     -11.534  15.239  69.006  0.00  0.00    +0.020 A 
ATOM      6  C   UNL     1     -12.107  15.716  70.179  0.00  0.00    +0.008 A 
ATOM      7  C   UNL     1     -12.766  14.850  71.016  0.00  0.00    +0.080 A 
ATOM      8  C   UNL     1     -12.476  13.505  70.912  0.00  0.00    +0.008 A 
ATOM      9  C   UNL     1     -11.811  13.057  69.799  0.00  0.00    +0.020 A 
BRANCH   7  10
ATOM     10  C   UNL     1     -13.698  15.288  72.060  0.00  0.00    +0.388 C 
ATOM     11  O   UNL     1     -14.973  15.643  71.605  0.00  0.00    -0.241 OA
ATOM     12  O   UNL     1     -13.683  14.688  73.177  0.00  0.00    -0.241 OA
ENDBRANCH   7  10
ENDBRANCH   1   4
BRANCH   1  13
ATOM     13  N   UNL     1     -11.802  14.238  65.941  0.00  0.00    -0.156 NA
BRANCH  13  14
ATOM     14  C   UNL     1     -10.705  14.711  65.128  0.00  0.00    +0.096 C 
BRANCH  14  16
ATOM     15  C   UNL     1      -8.932  16.117  66.143  0.00  0.00    +0.002 C 
ATOM     16  C   UNL     1     -10.307  16.111  65.530  0.00  0.00    +0.019 C 
ENDBRANCH  14  16
ENDBRANCH  13  14
BRANCH  13  17
ATOM     17  C   UNL     1     -12.749  13.604  65.028  0.00  0.00    +0.096 C 
BRANCH  17  18
ATOM     18  C   UNL     1     -11.927  13.213  63.805  0.00  0.00    +0.019 C 
ATOM     19  C   UNL     1     -12.442  11.845  63.377  0.00  0.00    +0.002 C 
ENDBRANCH  17  18
ENDBRANCH  13  17
ENDBRANCH   1  13
TORSDOF 7
ENDMDL
MODEL 2
REMARK VINA RESULT:      -5.7      1.140      2.790
REMARK  Name = 
REMARK  7 active torsions:
REMARK  status: ('A' for Active; 'I' for Inactive)
REMARK    1  A    between atoms: C_2  and  C_3
REMARK    2  A    between atoms: C_3  and  N_4
REMARK    3  A    between atoms: N_4  and  C_5
REMARK    4  A    between atoms: N_4  and  S_8
REMARK    5  A    between atoms: C_5  and  C_6
REMARK    6  A    between atoms: S_8  and  C_11
REMARK    7  A    between atoms: C_14  and  C_15
REMARK                            x       y       z     vdW  Elec       q    Type
REMARK                         _______ _______ _______ _____ _____    ______ ____
ROOT
ATOM      1  S   UNL     1     -11.708  13.268  67.000  0.00  0.00    +0.063 S 
ATOM      2  O   UNL     1     -12.139  11.820  67.070  0.00  0.00    -0.153 OA
ATOM      3  O   UNL     1     -12.748  13.975  66.166  0.00  0.00    -0.153 OA
ENDROOT
BRANCH   1   4
ATOM      4  C   UNL     1     -11.674  13.873  68.631  0.00  0.00    +0.122 A 
ATOM      5  C   UNL     1     -11.893  15.183  68.972  0.00  0.00    +0.020 A 
ATOM      6  C   UNL     1     -12.346  15.537  70.237  0.00  0.00    +0.008 A 
ATOM      7  C   UNL     1     -12.814  14.568  71.090  0.00  0.00    +0.080 A 
ATOM      8  C   UNL     1     -12.425  13.265  70.860  0.00  0.00    +0.008 A 
ATOM      9  C   UNL     1     -11.875  12.944  69.645  0.00  0.00    +0.020 A 
BRANCH   7  10
ATOM     10  C   UNL     1     -13.636  14.857  72.269  0.00  0.00    +0.388 C 
ATOM     11  O   UNL     1     -13.067  14.488  73.493  0.00  0.00    -0.241 OA
ATOM     12  O   UNL     1     -14.296  15.940  72.297  0.00  0.00    -0.241 OA
ENDBRANCH   7  10
ENDBRANCH   1   4
BRANCH   1  13
ATOM     13  N   UNL     1     -10.197  13.386  66.208  0.00  0.00    -0.156 NA
BRANCH  13  14
ATOM     14  C   UNL     1      -9.936  12.256  65.346  0.00  0.00    +0.096 C 
BRANCH  14  16
ATOM     15  C   UNL     1     -11.569  11.676  63.572  0.00  0.00    +0.002 C 
ATOM     16  C   UNL     1     -10.394  12.544  63.937  0.00  0.00    +0.019 C 
ENDBRANCH  14  16
ENDBRANCH  13  14
BRANCH  13  17
ATOM     17  C   UNL     1     -10.096  14.577  65.370  0.00  0.00    +0.096 C 
BRANCH  17  18
ATOM     18  C   UNL     1      -9.257  15.564  66.173  0.00  0.00    +0.019 C 
ATOM     19  C   UNL     1     -10.041  16.870  66.179  0.00  0.00    +0.002 C 
ENDBRANCH  17  18
ENDBRANCH  13  17
ENDBRANCH   1  13
TORSDOF 7
ENDMDL
MODEL 3
REMARK VINA RESULT:      -5.6      1.623      2.316
REMARK  Name = 
REMARK  7 active torsions:
REMARK  status: ('A' for Active; 'I' for Inactive)
REMARK    1  A    between atoms: C_2  and  C_3
REMARK    2  A    between atoms: C_3  and  N_4
REMARK    3  A    between atoms: N_4  and  C_5
REMARK    4  A    between atoms: N_4  and  S_8
REMARK    5  A    between atoms: C_5  and  C_6
REMARK    6  A    between atoms: S_8  and  C_11
REMARK    7  A    between atoms: C_14  and  C_15
REMARK                            x       y       z     vdW  Elec       q    Type
REMARK                         _______ _______ _______ _____ _____    ______ ____
ROOT
ATOM      1  S   UNL     1     -11.645  13.372  66.801  0.00  0.00    +0.063 S 
ATOM      2  O   UNL     1     -12.021  11.908  66.818  0.00  0.00    -0.153 OA
ATOM      3  O   UNL     1     -12.719  14.073  66.004  0.00  0.00    -0.153 OA
ENDROOT
BRANCH   1   4
ATOM      4  C   UNL     1     -11.616  13.914  68.454  0.00  0.00    +0.122 A 
ATOM      5  C   UNL     1     -11.836  15.211  68.845  0.00  0.00    +0.020 A 
ATOM      6  C   UNL     1     -12.293  15.517  70.121  0.00  0.00    +0.008 A 
ATOM      7  C   UNL     1     -12.764  14.515  70.934  0.00  0.00    +0.080 A 
ATOM      8  C   UNL     1     -12.375  13.222  70.655  0.00  0.00    +0.008 A 
ATOM      9  C   UNL     1     -11.821  12.947  69.431  0.00  0.00    +0.020 A 
BRANCH   7  10
ATOM     10  C   UNL     1     -13.589  14.760  72.120  0.00  0.00    +0.388 C 
ATOM     11  O   UNL     1     -14.526  15.791  71.988  0.00  0.00    -0.241 OA
ATOM     12  O   UNL     1     -13.990  13.764  72.797  0.00  0.00    -0.241 OA
ENDBRANCH   7  10
ENDBRANCH   1   4
BRANCH   1  13
ATOM     13  N   UNL     1     -10.148  13.577  66.001  0.00  0.00    -0.156 NA
BRANCH  13  14
ATOM     14  C   UNL     1     -10.071  14.833  65.289  0.00  0.00    +0.096 C 
BRANCH  14  16
ATOM     15  C   UNL     1     -10.036  17.124  66.239  0.00  0.00    +0.002 C 
ATOM     16  C   UNL     1      -9.265  15.841  66.072  0.00  0.00    +0.019 C 
ENDBRANCH  14  16
ENDBRANCH  13  14
BRANCH  13  17
ATOM     17  C   UNL     1      -9.013  13.554  66.920  0.00  0.00    +0.096 C 
BRANCH  17  18
ATOM     18  C   UNL     1      -8.496  12.121  66.882  0.00  0.00    +0.019 C 
ATOM     19  C   UNL     1      -8.524  11.629  68.324  0.00  0.00    +0.002 C 
ENDBRANCH  17  18
ENDBRANCH  13  17
ENDBRANCH   1  13
TORSDOF 7
ENDMDL
MODEL 4
REMARK VINA RESULT:      -5.6      1.527      1.788
REMARK  Name = 
REMARK  7 active torsions:
REMARK  status: ('A' for Active; 'I' for Inactive)
REMARK    1  A    between atoms: C_2  and  C_3
REMARK    2  A    between atoms: C_3  and  N_4
REMARK    3  A    between atoms: N_4  and  C_5
REMARK    4  A    between atoms: N_4  and  S_8
REMARK    5  A    between atoms: C_5  and  C_6
REMARK    6  A    between atoms: S_8  and  C_11
REMARK    7  A    between atoms: C_14  and  C_15
REMARK                            x       y       z     vdW  Elec       q    Type
REMARK                         _______ _______ _______ _____ _____    ______ ____
ROOT
ATOM      1  S   UNL     1     -11.680  13.386  66.997  0.00  0.00    +0.063 S 
ATOM      2  O   UNL     1     -12.072  11.931  67.125  0.00  0.00    -0.153 OA
ATOM      3  O   UNL     1     -12.772  14.047  66.191  0.00  0.00    -0.153 OA
ENDROOT
BRANCH   1   4
ATOM      4  C   UNL     1     -11.587  14.038  68.608  0.00  0.00    +0.122 A 
ATOM      5  C   UNL     1     -11.677  15.374  68.906  0.00  0.00    +0.020 A 
ATOM      6  C   UNL     1     -12.094  15.811  70.157  0.00  0.00    +0.008 A 
ATOM      7  C   UNL     1     -12.655  14.920  71.039  0.00  0.00    +0.080 A 
ATOM      8  C   UNL     1     -12.395  13.579  70.852  0.00  0.00    +0.008 A 
ATOM      9  C   UNL     1     -11.879  13.166  69.650  0.00  0.00    +0.020 A 
BRANCH   7  10
ATOM     10  C   UNL     1     -13.445  15.327  72.205  0.00  0.00    +0.388 C 
ATOM     11  O   UNL     1     -14.747  15.754  71.919  0.00  0.00    -0.241 OA
ATOM     12  O   UNL     1     -13.330  14.660  73.278  0.00  0.00    -0.241 OA
ENDBRANCH   7  10
ENDBRANCH   1   4
BRANCH   1  13
ATOM     13  N   UNL     1     -10.208  13.516  66.135  0.00  0.00    -0.156 NA
BRANCH  13  14
ATOM     14  C   UNL     1      -9.398  12.324  66.245  0.00  0.00    +0.096 C 
BRANCH  14  16
ATOM     15  C   UNL     1      -7.948  13.970  67.404  0.00  0.00    +0.002 C 
ATOM     16  C   UNL     1      -8.308  12.514  67.273  0.00  0.00    +0.019 C 
ENDBRANCH  14  16
ENDBRANCH  13  14
BRANCH  13  17
ATOM     17  C   UNL     1     -10.414  13.745  64.708  0.00  0.00    +0.096 C 
BRANCH  17  18
ATOM     18  C   UNL     1     -10.398  12.359  64.073  0.00  0.00    +0.019 C 
ATOM     19  C   UNL     1     -11.741  12.207  63.369  0.00  0.00    +0.002 C 
ENDBRANCH  17  18
ENDBRANCH  13  17
ENDBRANCH   1  13
TORSDOF 7
ENDMDL
MODEL 5
REMARK VINA RESULT:      -5.5      1.817      2.936
REMARK  Name = 
REMARK  7 active torsions:
REMARK  status: ('A' for Active; 'I' for Inactive)
REMARK    1  A    between atoms: C_2  and  C_3
REMARK    2  A    between atoms: C_3  and  N_4
REMARK    3  A    between atoms: N_4  and  C_5
REMARK    4  A    between atoms: N_4  and  S_8
REMARK    5  A    between atoms: C_5  and  C_6
REMARK    6  A    between atoms: S_8  and  C_11
REMARK    7  A    between atoms: C_14  and  C_15
REMARK                            x       y       z     vdW  Elec       q    Type
REMARK                         _______ _______ _______ _____ _____    ______ ____
ROOT
ATOM      1  S   UNL     1     -10.774  14.163  67.702  0.00  0.00    +0.063 S 
ATOM      2  O   UNL     1     -11.094  15.459  66.992  0.00  0.00    -0.153 OA
ATOM      3  O   UNL     1      -9.310  13.896  67.451  0.00  0.00    -0.153 OA
ENDROOT
BRANCH   1   4
ATOM      4  C   UNL     1     -11.101  14.409  69.393  0.00  0.00    +0.122 A 
ATOM      5  C   UNL     1     -10.937  15.606  70.044  0.00  0.00    +0.020 A 
ATOM      6  C   UNL     1     -11.647  15.905  71.201  0.00  0.00    +0.008 A 
ATOM      7  C   UNL     1     -12.701  15.110  71.579  0.00  0.00    +0.080 A 
ATOM      8  C   UNL     1     -12.754  13.827  71.075  0.00  0.00    +0.008 A 
ATOM      9  C   UNL     1     -11.967  13.507  69.998  0.00  0.00    +0.020 A 
BRANCH   7  10
ATOM     10  C   UNL     1     -13.722  15.528  72.544  0.00  0.00    +0.388 C 
ATOM     11  O   UNL     1     -13.237  16.234  73.651  0.00  0.00    -0.241 OA
ATOM     12  O   UNL     1     -14.841  15.934  72.107  0.00  0.00    -0.241 OA
ENDBRANCH   7  10
ENDBRANCH   1   4
BRANCH   1  13
ATOM     13  N   UNL     1     -11.687  12.887  67.021  0.00  0.00    -0.156 NA
BRANCH  13  14
ATOM     14  C   UNL     1     -12.266  13.244  65.745  0.00  0.00    +0.096 C 
BRANCH  14  16
ATOM     15  C   UNL     1     -12.330  12.185  63.503  0.00  0.00    +0.002 C 
ATOM     16  C   UNL     1     -11.441  12.685  64.611  0.00  0.00    +0.019 C 
ENDBRANCH  14  16
ENDBRANCH  13  14
BRANCH  13  17
ATOM     17  C   UNL     1     -10.888  11.687  66.791  0.00  0.00    +0.096 C 
BRANCH  17  18
ATOM     18  C   UNL     1     -11.316  10.706  67.876  0.00  0.00    +0.019 C 
ATOM     19  C   UNL     1     -10.093  10.506  68.763  0.00  0.00    +0.002 C 
ENDBRANCH  17  18
ENDBRANCH  13  17
ENDBRANCH   1  13
TORSDOF 7
ENDMDL
MODEL 6
REMARK VINA RESULT:      -5.3      2.961      5.366
REMARK  Name = 
REMARK  7 active torsions:
REMARK  status: ('A' for Active; 'I' for Inactive)
REMARK    1  A    between atoms: C_2  and  C_3
REMARK    2  A    between atoms: C_3  and  N_4
REMARK    3  A    between atoms: N_4  and  C_5
REMARK    4  A    between atoms: N_4  and  S_8
REMARK    5  A    between atoms: C_5  and  C_6
REMARK    6  A    between atoms: S_8  and  C_11
REMARK    7  A    between atoms: C_14  and  C_15
REMARK                            x       y       z     vdW  Elec       q    Type
REMARK                         _______ _______ _______ _____ _____    ______ ____
ROOT
ATOM      1  S   UNL     1     -10.295  16.801  65.848  0.00  0.00    +0.063 S 
ATOM      2  O   UNL     1      -8.846  17.164  65.610  0.00  0.00    -0.153 OA
ATOM      3  O   UNL     1     -11.048  17.252  64.620  0.00  0.00    -0.153 OA
ENDROOT
BRANCH   1   4
ATOM      4  C   UNL     1     -10.366  15.074  66.047  0.00  0.00    +0.122 A 
ATOM      5  C   UNL     1      -9.363  14.320  66.602  0.00  0.00    +0.020 A 
ATOM      6  C   UNL     1      -9.623  13.089  67.192  0.00  0.00    +0.008 A 
ATOM      7  C   UNL     1     -10.921  12.716  67.447  0.00  0.00    +0.080 A 
ATOM      8  C   UNL     1     -11.923  13.341  66.735  0.00  0.00    +0.008 A 
ATOM      9  C   UNL     1     -11.631  14.500  66.062  0.00  0.00    +0.020 A 
BRANCH   7  10
ATOM     10  C   UNL     1     -11.284  11.639  68.373  0.00  0.00    +0.388 C 
ATOM     11  O   UNL     1     -11.688  12.062  69.644  0.00  0.00    -0.241 OA
ATOM     12  O   UNL     1     -11.919  10.639  67.921  0.00  0.00    -0.241 OA
ENDBRANCH   7  10
ENDBRANCH   1   4
BRANCH   1  13
ATOM     13  N   UNL     1     -10.893  17.658  67.202  0.00  0.00    -0.156 NA
BRANCH  13  14
ATOM     14  C   UNL     1     -10.292  17.220  68.441  0.00  0.00    +0.096 C 
BRANCH  14  16
ATOM     15  C   UNL     1     -10.508  15.395  70.106  0.00  0.00    +0.002 C 
ATOM     16  C   UNL     1     -11.254  16.362  69.226  0.00  0.00    +0.019 C 
ENDBRANCH  14  16
ENDBRANCH  13  14
BRANCH  13  17
ATOM     17  C   UNL     1     -10.647  19.095  67.109  0.00  0.00    +0.096 C 
BRANCH  17  18
ATOM     18  C   UNL     1      -9.552  19.381  68.130  0.00  0.00    +0.019 C 
ATOM     19  C   UNL     1      -8.532  20.258  67.414  0.00  0.00    +0.002 C 
ENDBRANCH  17  18
ENDBRANCH  13  17
ENDBRANCH   1  13
TORSDOF 7
ENDMDL
MODEL 7
REMARK VINA RESULT:      -5.3      3.193      6.022
REMARK  Name = 
REMARK  7 active torsions:
REMARK  status: ('A' for Active; 'I' for Inactive)
REMARK    1  A    between atoms: C_2  and  C_3
REMARK    2  A    between atoms: C_3  and  N_4
REMARK    3  A    between atoms: N_4  and  C_5
REMARK    4  A    between atoms: N_4  and  S_8
REMARK    5  A    between atoms: C_5  and  C_6
REMARK    6  A    between atoms: S_8  and  C_11
REMARK    7  A    between atoms: C_14  and  C_15
REMARK                            x       y       z     vdW  Elec       q    Type
REMARK                         _______ _______ _______ _____ _____    ______ ____
ROOT
ATOM      1  S   UNL     1     -10.489  16.011  68.186  0.00  0.00    +0.063 S 
ATOM      2  O   UNL     1     -11.581  16.486  69.117  0.00  0.00    -0.153 OA
ATOM      3  O   UNL     1      -9.691  14.990  68.961  0.00  0.00    -0.153 OA
ENDROOT
BRANCH   1   4
ATOM      4  C   UNL     1     -11.266  15.302  66.800  0.00  0.00    +0.122 A 
ATOM      5  C   UNL     1     -10.866  15.505  65.504  0.00  0.00    +0.020 A 
ATOM      6  C   UNL     1     -11.152  14.583  64.504  0.00  0.00    +0.008 A 
ATOM      7  C   UNL     1     -11.629  13.340  64.840  0.00  0.00    +0.080 A 
ATOM      8  C   UNL     1     -12.217  13.187  66.078  0.00  0.00    +0.008 A 
ATOM      9  C   UNL     1     -12.020  14.157  67.027  0.00  0.00    +0.020 A 
BRANCH   7  10
ATOM     10  C   UNL     1     -11.614  12.195  63.923  0.00  0.00    +0.388 C 
ATOM     11  O   UNL     1     -12.821  11.953  63.258  0.00  0.00    -0.241 OA
ATOM     12  O   UNL     1     -10.575  11.990  63.226  0.00  0.00    -0.241 OA
ENDBRANCH   7  10
ENDBRANCH   1   4
BRANCH   1  13
ATOM     13  N   UNL     1      -9.461  17.318  67.784  0.00  0.00    -0.156 NA
BRANCH  13  14
ATOM     14  C   UNL     1      -9.747  18.503  68.560  0.00  0.00    +0.096 C 
BRANCH  14  16
ATOM     15  C   UNL     1     -10.457  19.164  66.277  0.00  0.00    +0.002 C 
ATOM     16  C   UNL     1     -10.109  19.657  67.657  0.00  0.00    +0.019 C 
ENDBRANCH  14  16
ENDBRANCH  13  14
BRANCH  13  17
ATOM     17  C   UNL     1      -8.051  17.010  68.005  0.00  0.00    +0.096 C 
BRANCH  17  18
ATOM     18  C   UNL     1      -7.516  16.577  66.644  0.00  0.00    +0.019 C 
ATOM     19  C   UNL     1      -6.972  17.841  65.989  0.00  0.00    +0.002 C 
ENDBRANCH  17  18
ENDBRANCH  13  17
ENDBRANCH   1  13
TORSDOF 7
ENDMDL
MODEL 8
REMARK VINA RESULT:      -5.3      2.759      3.568
REMARK  Name = 
REMARK  7 active torsions:
REMARK  status: ('A' for Active; 'I' for Inactive)
REMARK    1  A    between atoms: C_2  and  C_3
REMARK    2  A    between atoms: C_3  and  N_4
REMARK    3  A    between atoms: N_4  and  C_5
REMARK    4  A    between atoms: N_4  and  S_8
REMARK    5  A    between atoms: C_5  and  C_6
REMARK    6  A    between atoms: S_8  and  C_11
REMARK    7  A    between atoms: C_14  and  C_15
REMARK                            x       y       z     vdW  Elec       q    Type
REMARK                         _______ _______ _______ _____ _____    ______ ____
ROOT
ATOM      1  S   UNL     1     -10.190  15.280  67.404  0.00  0.00    +0.063 S 
ATOM      2  O   UNL     1      -9.233  14.141  67.133  0.00  0.00    -0.153 OA
ATOM      3  O   UNL     1     -11.304  15.142  66.395  0.00  0.00    -0.153 OA
ENDROOT
BRANCH   1   4
ATOM      4  C   UNL     1     -10.772  15.086  69.033  0.00  0.00    +0.122 A 
ATOM      5  C   UNL     1     -11.005  16.125  69.897  0.00  0.00    +0.020 A 
ATOM      6  C   UNL     1     -11.903  16.004  70.951  0.00  0.00    +0.008 A 
ATOM      7  C   UNL     1     -12.751  14.925  71.003  0.00  0.00    +0.080 A 
ATOM      8  C   UNL     1     -12.407  13.799  70.285  0.00  0.00    +0.008 A 
ATOM      9  C   UNL     1     -11.440  13.901  69.319  0.00  0.00    +0.020 A 
BRANCH   7  10
ATOM     10  C   UNL     1     -13.955  14.884  71.840  0.00  0.00    +0.388 C 
ATOM     11  O   UNL     1     -14.135  13.699  72.561  0.00  0.00    -0.241 OA
ATOM     12  O   UNL     1     -14.300  15.937  72.457  0.00  0.00    -0.241 OA
ENDBRANCH   7  10
ENDBRANCH   1   4
BRANCH   1  13
ATOM     13  N   UNL     1      -9.400  16.775  67.148  0.00  0.00    -0.156 NA
BRANCH  13  14
ATOM     14  C   UNL     1      -8.140  16.621  66.456  0.00  0.00    +0.096 C 
BRANCH  14  16
ATOM     15  C   UNL     1      -7.129  17.844  68.361  0.00  0.00    +0.002 C 
ATOM     16  C   UNL     1      -6.988  16.671  67.429  0.00  0.00    +0.019 C 
ENDBRANCH  14  16
ENDBRANCH  13  14
BRANCH  13  17
ATOM     17  C   UNL     1     -10.199  17.701  66.350  0.00  0.00    +0.096 C 
BRANCH  17  18
ATOM     18  C   UNL     1     -10.617  18.804  67.315  0.00  0.00    +0.019 C 
ATOM     19  C   UNL     1      -9.856  20.050  66.877  0.00  0.00    +0.002 C 
ENDBRANCH  17  18
ENDBRANCH  13  17
ENDBRANCH   1  13
TORSDOF 7
ENDMDL
MODEL 9
REMARK VINA RESULT:      -5.2      4.024      6.426
REMARK  Name = 
REMARK  7 active torsions:
REMARK  status: ('A' for Active; 'I' for Inactive)
REMARK    1  A    between atoms: C_2  and  C_3
REMARK    2  A    between atoms: C_3  and  N_4
REMARK    3  A    between atoms: N_4  and  C_5
REMARK    4  A    between atoms: N_4  and  S_8
REMARK    5  A    between atoms: C_5  and  C_6
REMARK    6  A    between atoms: S_8  and  C_11
REMARK    7  A    between atoms: C_14  and  C_15
REMARK                            x       y       z     vdW  Elec       q    Type
REMARK                         _______ _______ _______ _____ _____    ______ ____
ROOT
ATOM      1  S   UNL     1     -10.042  17.915  66.603  0.00  0.00    +0.063 S 
ATOM      2  O   UNL     1     -10.635  18.799  65.529  0.00  0.00    -0.153 OA
ATOM      3  O   UNL     1     -10.931  18.071  67.814  0.00  0.00    -0.153 OA
ENDROOT
BRANCH   1   4
ATOM      4  C   UNL     1     -10.065  16.284  65.997  0.00  0.00    +0.122 A 
ATOM      5  C   UNL     1      -9.626  15.192  66.703  0.00  0.00    +0.020 A 
ATOM      6  C   UNL     1     -10.096  13.914  66.428  0.00  0.00    +0.008 A 
ATOM      7  C   UNL     1     -11.187  13.750  65.609  0.00  0.00    +0.080 A 
ATOM      8  C   UNL     1     -11.508  14.780  64.750  0.00  0.00    +0.008 A 
ATOM      9  C   UNL     1     -10.952  16.016  64.962  0.00  0.00    +0.020 A 
BRANCH   7  10
ATOM     10  C   UNL     1     -11.973  12.514  65.549  0.00  0.00    +0.388 C 
ATOM     11  O   UNL     1     -12.048  11.800  66.750  0.00  0.00    -0.241 OA
ATOM     12  O   UNL     1     -13.038  12.506  64.861  0.00  0.00    -0.241 OA
ENDBRANCH   7  10
ENDBRANCH   1   4
BRANCH   1  13
ATOM     13  N   UNL     1      -8.472  18.461  67.003  0.00  0.00    -0.156 NA
BRANCH  13  14
ATOM     14  C   UNL     1      -8.210  19.794  66.510  0.00  0.00    +0.096 C 
BRANCH  14  16
ATOM     15  C   UNL     1      -6.120  21.077  66.880  0.00  0.00    +0.002 C 
ATOM     16  C   UNL     1      -6.759  19.944  66.122  0.00  0.00    +0.019 C 
ENDBRANCH  14  16
ENDBRANCH  13  14
BRANCH  13  17
ATOM     17  C   UNL     1      -8.243  18.501  68.444  0.00  0.00    +0.096 C 
BRANCH  17  18
ATOM     18  C   UNL     1      -7.332  17.315  68.739  0.00  0.00    +0.019 C 
ATOM     19  C   UNL     1      -6.045  17.906  69.299  0.00  0.00    +0.002 C 
ENDBRANCH  17  18
ENDBRANCH  13  17
ENDBRANCH   1  13
TORSDOF 7
ENDMDL
