MODEL 1
REMARK VINA RESULT:      -6.5      0.000      0.000
REMARK  Name = 
REMARK  2 active torsions:
REMARK  status: ('A' for Active; 'I' for Inactive)
REMARK    1  A    between atoms: C_2  and  C_3
REMARK    2  A    between atoms: C_2  and  N_12
REMARK                            x       y       z     vdW  Elec       q    Type
REMARK                         _______ _______ _______ _____ _____    ______ ____
ROOT
ATOM      1  C   UNL     1     -11.344  14.170  68.083  0.00  0.00    +0.026 A 
ATOM      2  S   UNL     1     -11.270  15.683  68.895  0.00  0.00    -0.090 S 
ATOM      3  C   UNL     1     -11.818  15.241  70.467  0.00  0.00    +0.029 A 
ATOM      4  C   UNL     1     -12.090  13.894  70.269  0.00  0.00    +0.006 A 
ATOM      5  C   UNL     1     -12.855  13.343  71.302  0.00  0.00    +0.001 A 
ATOM      6  C   UNL     1     -13.892  14.110  71.828  0.00  0.00    +0.000 A 
ATOM      7  C   UNL     1     -13.561  15.431  72.116  0.00  0.00    +0.001 A 
ATOM      8  C   UNL     1     -12.396  15.934  71.538  0.00  0.00    +0.006 A 
ATOM      9  C   UNL     1     -11.633  13.366  69.136  0.00  0.00    +0.004 A 
ENDROOT
BRANCH   1  11
ATOM     10  C   UNL     1     -11.444  12.571  66.318  0.00  0.00    +0.027 C 
ATOM     11  C   UNL     1     -12.212  14.002  66.694  0.00  0.00    +0.109 C 
BRANCH  11  12
ATOM     12  N   UNL     1     -11.167  14.861  65.842  0.00  0.00    -0.264 N 
ATOM     13  C   UNL     1     -11.891  15.394  64.717  0.00  0.00    +0.188 C 
ATOM     14  O   UNL     1     -12.725  14.663  64.126  0.00  0.00    -0.524 OA
ATOM     15  N   UNL     1     -11.419  16.523  63.994  0.00  0.00    -0.102 NA
ATOM     16  O   UNL     1     -10.153  14.050  65.412  0.00  0.00    -0.418 OA
ENDBRANCH  11  12
ENDBRANCH   1  11
TORSDOF 2
ENDMDL
MODEL 2
REMARK VINA RESULT:      -6.0      1.537      2.149
REMARK  Name = 
REMARK  2 active torsions:
REMARK  status: ('A' for Active; 'I' for Inactive)
REMARK    1  A    between atoms: C_2  and  C_3
REMARK    2  A    between atoms: C_2  and  N_12
REMARK                            x       y       z     vdW  Elec       q    Type
REMARK                         _______ _______ _______ _____ _____    ______ ____
ROOT
ATOM      1  C   UNL     1     -11.278  13.418  67.615  0.00  0.00    +0.026 A 
ATOM      2  S   UNL     1     -11.996  14.204  68.964  0.00  0.00    -0.090 S 
ATOM      3  C   UNL     1     -11.925  12.956  70.150  0.00  0.00    +0.029 A 
ATOM      4  C   UNL     1     -11.368  11.929  69.400  0.00  0.00    +0.006 A 
ATOM      5  C   UNL     1     -11.485  10.683  70.025  0.00  0.00    +0.001 A 
ATOM      6  C   UNL     1     -12.679  10.391  70.680  0.00  0.00    +0.000 A 
ATOM      7  C   UNL     1     -13.160  11.401  71.508  0.00  0.00    +0.001 A 
ATOM      8  C   UNL     1     -12.629  12.677  71.327  0.00  0.00    +0.006 A 
ATOM      9  C   UNL     1     -10.867  12.275  68.216  0.00  0.00    +0.004 A 
ENDROOT
BRANCH   1  11
ATOM     10  C   UNL     1     -11.113  12.056  65.665  0.00  0.00    +0.027 C 
ATOM     11  C   UNL     1     -12.077  13.316  66.178  0.00  0.00    +0.109 C 
BRANCH  11  12
ATOM     12  N   UNL     1     -11.132  14.404  65.485  0.00  0.00    -0.264 N 
ATOM     13  C   UNL     1     -11.943  15.097  64.517  0.00  0.00    +0.188 C 
ATOM     14  O   UNL     1     -12.753  14.440  63.817  0.00  0.00    -0.524 OA
ATOM     15  N   UNL     1     -11.581  16.380  64.024  0.00  0.00    -0.102 NA
ATOM     16  O   UNL     1     -10.089  13.774  64.865  0.00  0.00    -0.418 OA
ENDBRANCH  11  12
ENDBRANCH   1  11
TORSDOF 2
ENDMDL
MODEL 3
REMARK VINA RESULT:      -5.8      3.650      5.991
REMARK  Name = 
REMARK  2 active torsions:
REMARK  status: ('A' for Active; 'I' for Inactive)
REMARK    1  A    between atoms: C_2  and  C_3
REMARK    2  A    between atoms: C_2  and  N_12
REMARK                            x       y       z     vdW  Elec       q    Type
REMARK                         _______ _______ _______ _____ _____    ______ ____
ROOT
ATOM      1  C   UNL     1     -11.268  14.508  68.968  0.00  0.00    +0.026 A 
ATOM      2  S   UNL     1     -11.684  12.904  68.511  0.00  0.00    -0.090 S 
ATOM      3  C   UNL     1     -11.385  12.956  66.816  0.00  0.00    +0.029 A 
ATOM      4  C   UNL     1     -11.007  14.284  66.668  0.00  0.00    +0.006 A 
ATOM      5  C   UNL     1     -11.009  14.696  65.331  0.00  0.00    +0.001 A 
ATOM      6  C   UNL     1     -12.046  14.256  64.513  0.00  0.00    +0.000 A 
ATOM      7  C   UNL     1     -12.333  12.897  64.605  0.00  0.00    +0.001 A 
ATOM      8  C   UNL     1     -11.836  12.217  65.715  0.00  0.00    +0.006 A 
ATOM      9  C   UNL     1     -10.756  14.948  67.793  0.00  0.00    +0.004 A 
ENDROOT
BRANCH   1  11
ATOM     10  C   UNL     1     -11.134  16.447  70.347  0.00  0.00    +0.027 C 
ATOM     11  C   UNL     1     -12.347  15.459  69.771  0.00  0.00    +0.109 C 
BRANCH  11  12
ATOM     12  N   UNL     1     -12.306  14.541  71.078  0.00  0.00    -0.264 N 
ATOM     13  C   UNL     1     -13.646  14.517  71.608  0.00  0.00    +0.188 C 
ATOM     14  O   UNL     1     -14.318  15.578  71.613  0.00  0.00    -0.524 OA
ATOM     15  N   UNL     1     -14.080  13.491  72.490  0.00  0.00    -0.102 NA
ATOM     16  O   UNL     1     -11.445  15.084  71.992  0.00  0.00    -0.418 OA
ENDBRANCH  11  12
ENDBRANCH   1  11
TORSDOF 2
ENDMDL
MODEL 4
REMARK VINA RESULT:      -5.8      3.255      4.455
REMARK  Name = 
REMARK  2 active torsions:
REMARK  status: ('A' for Active; 'I' for Inactive)
REMARK    1  A    between atoms: C_2  and  C_3
REMARK    2  A    between atoms: C_2  and  N_12
REMARK                            x       y       z     vdW  Elec       q    Type
REMARK                         _______ _______ _______ _____ _____    ______ ____
ROOT
ATOM      1  C   UNL     1     -10.468  15.212  66.704  0.00  0.00    +0.026 A 
ATOM      2  S   UNL     1     -10.653  16.461  65.537  0.00  0.00    -0.090 S 
ATOM      3  C   UNL     1      -9.857  17.770  66.326  0.00  0.00    +0.029 A 
ATOM      4  C   UNL     1      -9.512  17.166  67.528  0.00  0.00    +0.006 A 
ATOM      5  C   UNL     1      -9.126  18.093  68.502  0.00  0.00    +0.001 A 
ATOM      6  C   UNL     1      -9.845  19.282  68.594  0.00  0.00    +0.000 A 
ATOM      7  C   UNL     1     -10.086  19.920  67.380  0.00  0.00    +0.001 A 
ATOM      8  C   UNL     1      -9.919  19.165  66.221  0.00  0.00    +0.006 A 
ATOM      9  C   UNL     1      -9.643  15.843  67.576  0.00  0.00    +0.004 A 
ENDROOT
BRANCH   1  11
ATOM     10  C   UNL     1     -10.854  13.602  68.418  0.00  0.00    +0.027 C 
ATOM     11  C   UNL     1     -11.780  14.409  67.291  0.00  0.00    +0.109 C 
BRANCH  11  12
ATOM     12  N   UNL     1     -11.631  13.224  66.228  0.00  0.00    -0.264 N 
ATOM     13  C   UNL     1     -12.514  13.537  65.134  0.00  0.00    +0.188 C 
ATOM     14  O   UNL     1     -13.651  14.009  65.385  0.00  0.00    -0.524 OA
ATOM     15  N   UNL     1     -12.341  12.959  63.847  0.00  0.00    -0.102 NA
ATOM     16  O   UNL     1     -11.995  12.041  66.808  0.00  0.00    -0.418 OA
ENDBRANCH  11  12
ENDBRANCH   1  11
TORSDOF 2
ENDMDL
MODEL 5
REMARK VINA RESULT:      -5.8      2.947      5.166
REMARK  Name = 
REMARK  2 active torsions:
REMARK  status: ('A' for Active; 'I' for Inactive)
REMARK    1  A    between atoms: C_2  and  C_3
REMARK    2  A    between atoms: C_2  and  N_12
REMARK                            x       y       z     vdW  Elec       q    Type
REMARK                         _______ _______ _______ _____ _____    ______ ____
ROOT
ATOM      1  C   UNL     1     -10.433  13.950  67.712  0.00  0.00    +0.026 A 
ATOM      2  S   UNL     1     -12.038  13.968  67.096  0.00  0.00    -0.090 S 
ATOM      3  C   UNL     1     -11.923  12.793  65.842  0.00  0.00    +0.029 A 
ATOM      4  C   UNL     1     -10.577  12.462  65.930  0.00  0.00    +0.006 A 
ATOM      5  C   UNL     1     -10.124  11.752  64.814  0.00  0.00    +0.001 A 
ATOM      6  C   UNL     1     -10.580  12.148  63.559  0.00  0.00    +0.000 A 
ATOM      7  C   UNL     1     -11.951  12.372  63.473  0.00  0.00    +0.001 A 
ATOM      8  C   UNL     1     -12.645  12.530  64.672  0.00  0.00    +0.006 A 
ATOM      9  C   UNL     1      -9.938  12.901  67.012  0.00  0.00    +0.004 A 
ENDROOT
BRANCH   1  11
ATOM     10  C   UNL     1     -10.134  15.686  69.318  0.00  0.00    +0.027 C 
ATOM     11  C   UNL     1      -9.550  15.337  67.796  0.00  0.00    +0.109 C 
BRANCH  11  12
ATOM     12  N   UNL     1     -10.693  16.203  67.090  0.00  0.00    -0.264 N 
ATOM     13  C   UNL     1     -10.164  16.628  65.819  0.00  0.00    +0.188 C 
ATOM     14  O   UNL     1      -8.967  17.006  65.753  0.00  0.00    -0.524 OA
ATOM     15  N   UNL     1     -11.015  17.040  64.758  0.00  0.00    -0.102 NA
ATOM     16  O   UNL     1     -10.991  17.288  67.867  0.00  0.00    -0.418 OA
ENDBRANCH  11  12
ENDBRANCH   1  11
TORSDOF 2
ENDMDL
MODEL 6
REMARK VINA RESULT:      -5.6      4.333      6.271
REMARK  Name = 
REMARK  2 active torsions:
REMARK  status: ('A' for Active; 'I' for Inactive)
REMARK    1  A    between atoms: C_2  and  C_3
REMARK    2  A    between atoms: C_2  and  N_12
REMARK                            x       y       z     vdW  Elec       q    Type
REMARK                         _______ _______ _______ _____ _____    ______ ____
ROOT
ATOM      1  C   UNL     1     -11.579  15.687  70.261  0.00  0.00    +0.026 A 
ATOM      2  S   UNL     1      -9.995  15.815  69.607  0.00  0.00    -0.090 S 
ATOM      3  C   UNL     1     -10.259  15.274  67.993  0.00  0.00    +0.029 A 
ATOM      4  C   UNL     1     -11.611  14.960  68.052  0.00  0.00    +0.006 A 
ATOM      5  C   UNL     1     -12.031  14.193  66.961  0.00  0.00    +0.001 A 
ATOM      6  C   UNL     1     -11.184  13.186  66.505  0.00  0.00    +0.000 A 
ATOM      7  C   UNL     1      -9.851  13.559  66.356  0.00  0.00    +0.001 A 
ATOM      8  C   UNL     1      -9.445  14.730  66.993  0.00  0.00    +0.006 A 
ATOM      9  C   UNL     1     -12.263  15.388  69.130  0.00  0.00    +0.004 A 
ENDROOT
BRANCH   1  11
ATOM     10  C   UNL     1     -13.299  14.216  71.009  0.00  0.00    +0.027 C 
ATOM     11  C   UNL     1     -11.859  14.796  71.618  0.00  0.00    +0.109 C 
BRANCH  11  12
ATOM     12  N   UNL     1     -12.590  16.009  72.360  0.00  0.00    -0.264 N 
ATOM     13  C   UNL     1     -12.305  15.864  73.765  0.00  0.00    +0.188 C 
ATOM     14  O   UNL     1     -12.328  14.716  74.276  0.00  0.00    -0.524 OA
ATOM     15  N   UNL     1     -12.420  16.957  74.665  0.00  0.00    -0.102 NA
ATOM     16  O   UNL     1     -13.937  15.935  72.139  0.00  0.00    -0.418 OA
ENDBRANCH  11  12
ENDBRANCH   1  11
TORSDOF 2
ENDMDL
MODEL 7
REMARK VINA RESULT:      -5.6      3.018      5.585
REMARK  Name = 
REMARK  2 active torsions:
REMARK  status: ('A' for Active; 'I' for Inactive)
REMARK    1  A    between atoms: C_2  and  C_3
REMARK    2  A    between atoms: C_2  and  N_12
REMARK                            x       y       z     vdW  Elec       q    Type
REMARK                         _______ _______ _______ _____ _____    ______ ____
ROOT
ATOM      1  C   UNL     1     -11.654  14.038  67.205  0.00  0.00    +0.026 A 
ATOM      2  S   UNL     1     -11.944  14.345  65.539  0.00  0.00    -0.090 S 
ATOM      3  C   UNL     1     -11.758  12.766  64.875  0.00  0.00    +0.029 A 
ATOM      4  C   UNL     1     -11.418  12.052  66.016  0.00  0.00    +0.006 A 
ATOM      5  C   UNL     1     -10.896  10.788  65.723  0.00  0.00    +0.001 A 
ATOM      6  C   UNL     1     -10.024  10.677  64.643  0.00  0.00    +0.000 A 
ATOM      7  C   UNL     1     -10.441  11.315  63.479  0.00  0.00    +0.001 A 
ATOM      8  C   UNL     1     -11.455  12.264  63.604  0.00  0.00    +0.006 A 
ATOM      9  C   UNL     1     -11.594  12.684  67.174  0.00  0.00    +0.004 A 
ENDROOT
BRANCH   1  11
ATOM     10  C   UNL     1     -11.068  14.344  69.495  0.00  0.00    +0.027 C 
ATOM     11  C   UNL     1     -10.488  14.866  68.022  0.00  0.00    +0.109 C 
BRANCH  11  12
ATOM     12  N   UNL     1     -11.365  16.202  68.080  0.00  0.00    -0.264 N 
ATOM     13  C   UNL     1     -10.440  17.305  68.045  0.00  0.00    +0.188 C 
ATOM     14  O   UNL     1      -9.376  17.230  68.709  0.00  0.00    -0.524 OA
ATOM     15  N   UNL     1     -10.850  18.609  67.657  0.00  0.00    -0.102 NA
ATOM     16  O   UNL     1     -12.087  16.224  69.242  0.00  0.00    -0.418 OA
ENDBRANCH  11  12
ENDBRANCH   1  11
TORSDOF 2
ENDMDL
MODEL 8
REMARK VINA RESULT:      -5.6      3.617      4.669
REMARK  Name = 
REMARK  2 active torsions:
REMARK  status: ('A' for Active; 'I' for Inactive)
REMARK    1  A    between atoms: C_2  and  C_3
REMARK    2  A    between atoms: C_2  and  N_12
REMARK                            x       y       z     vdW  Elec       q    Type
REMARK                         _______ _______ _______ _____ _____    ______ ____
ROOT
ATOM      1  C   UNL     1     -10.276  15.869  68.237  0.00  0.00    +0.026 A 
ATOM      2  S   UNL     1      -8.734  16.450  68.727  0.00  0.00    -0.090 S 
ATOM      3  C   UNL     1      -8.941  18.148  68.520  0.00  0.00    +0.029 A 
ATOM      4  C   UNL     1     -10.233  18.184  68.015  0.00  0.00    +0.006 A 
ATOM      5  C   UNL     1     -10.555  19.424  67.453  0.00  0.00    +0.001 A 
ATOM      6  C   UNL     1      -9.580  20.072  66.699  0.00  0.00    +0.000 A 
ATOM      7  C   UNL     1      -8.315  20.112  67.280  0.00  0.00    +0.001 A 
ATOM      8  C   UNL     1      -8.070  19.227  68.328  0.00  0.00    +0.006 A 
ATOM      9  C   UNL     1     -10.925  17.051  68.100  0.00  0.00    +0.004 A 
ENDROOT
BRANCH   1  11
ATOM     10  C   UNL     1      -8.761  14.507  67.001  0.00  0.00    +0.027 C 
ATOM     11  C   UNL     1     -10.410  14.745  67.041  0.00  0.00    +0.109 C 
BRANCH  11  12
ATOM     12  N   UNL     1     -10.343  15.849  65.887  0.00  0.00    -0.264 N 
ATOM     13  C   UNL     1     -11.232  15.410  64.843  0.00  0.00    +0.188 C 
ATOM     14  O   UNL     1     -11.259  14.191  64.538  0.00  0.00    -0.524 OA
ATOM     15  N   UNL     1     -11.750  16.312  63.875  0.00  0.00    -0.102 NA
ATOM     16  O   UNL     1      -9.063  15.937  65.414  0.00  0.00    -0.418 OA
ENDBRANCH  11  12
ENDBRANCH   1  11
TORSDOF 2
ENDMDL
MODEL 9
REMARK VINA RESULT:      -5.3      3.516      5.290
REMARK  Name = 
REMARK  2 active torsions:
REMARK  status: ('A' for Active; 'I' for Inactive)
REMARK    1  A    between atoms: C_2  and  C_3
REMARK    2  A    between atoms: C_2  and  N_12
REMARK                            x       y       z     vdW  Elec       q    Type
REMARK                         _______ _______ _______ _____ _____    ______ ____
ROOT
ATOM      1  C   UNL     1      -8.669  15.688  67.111  0.00  0.00    +0.026 A 
ATOM      2  S   UNL     1      -8.722  13.974  67.237  0.00  0.00    -0.090 S 
ATOM      3  C   UNL     1      -9.922  13.594  66.061  0.00  0.00    +0.029 A 
ATOM      4  C   UNL     1     -10.276  14.869  65.642  0.00  0.00    +0.006 A 
ATOM      5  C   UNL     1     -11.466  14.882  64.907  0.00  0.00    +0.001 A 
ATOM      6  C   UNL     1     -12.508  14.064  65.337  0.00  0.00    +0.000 A 
ATOM      7  C   UNL     1     -12.141  12.759  65.652  0.00  0.00    +0.001 A 
ATOM      8  C   UNL     1     -10.784  12.511  65.852  0.00  0.00    +0.006 A 
ATOM      9  C   UNL     1      -9.474  15.856  66.033  0.00  0.00    +0.004 A 
ENDROOT
BRANCH   1  11
ATOM     10  C   UNL     1      -9.685  15.406  69.248  0.00  0.00    +0.027 C 
ATOM     11  C   UNL     1      -8.907  16.636  68.436  0.00  0.00    +0.109 C 
BRANCH  11  12
ATOM     12  N   UNL     1     -10.284  17.219  67.871  0.00  0.00    -0.264 N 
ATOM     13  C   UNL     1     -10.190  18.654  67.954  0.00  0.00    +0.188 C 
ATOM     14  O   UNL     1      -9.665  19.173  68.971  0.00  0.00    -0.524 OA
ATOM     15  N   UNL     1     -11.019  19.502  67.171  0.00  0.00    -0.102 NA
ATOM     16  O   UNL     1     -11.321  16.767  68.639  0.00  0.00    -0.418 OA
ENDBRANCH  11  12
ENDBRANCH   1  11
TORSDOF 2
ENDMDL
