MODEL 1
REMARK VINA RESULT:      -6.6      0.000      0.000
REMARK  Name = 
REMARK  5 active torsions:
REMARK  status: ('A' for Active; 'I' for Inactive)
REMARK    1  A    between atoms: O_2  and  C_3
REMARK    2  A    between atoms: C_7  and  O_8
REMARK    3  A    between atoms: C_10  and  O_11
REMARK    4  A    between atoms: C_16  and  O_17
REMARK    5  A    between atoms: C_23  and  N_24
REMARK                            x       y       z     vdW  Elec       q    Type
REMARK                         _______ _______ _______ _____ _____    ______ ____
ROOT
ATOM      1  C   UNL     1      -7.241  17.022  67.731  0.00  0.00    +0.175 A 
ATOM      2  C   UNL     1      -8.244  17.936  68.032  0.00  0.00    +0.206 A 
ATOM      3  C   UNL     1      -9.522  17.504  68.363  0.00  0.00    +0.175 A 
ATOM      4  C   UNL     1      -9.796  16.178  68.060  0.00  0.00    +0.033 A 
ATOM      5  C   UNL     1     -10.940  15.781  68.892  0.00  0.00    +0.001 A 
ATOM      6  C   UNL     1     -11.724  14.695  68.796  0.00  0.00    +0.001 A 
ATOM      7  C   UNL     1     -11.555  13.449  67.748  0.00  0.00    +0.118 C 
ATOM      8  C   UNL     1      -9.907  13.345  68.026  0.00  0.00    +0.031 C 
ATOM      9  C   UNL     1      -9.189  13.972  66.916  0.00  0.00    +0.029 C 
ATOM     10  C   UNL     1     -12.756  14.200  69.550  0.00  0.00    +0.043 A 
ATOM     11  C   UNL     1     -13.192  14.807  70.726  0.00  0.00    +0.229 A 
ATOM     12  O   UNL     1     -14.424  14.772  70.982  0.00  0.00    -0.283 OA
ATOM     13  C   UNL     1     -12.476  15.630  71.588  0.00  0.00    +0.177 A 
ATOM     14  C   UNL     1     -11.306  16.327  71.322  0.00  0.00    +0.040 A 
ATOM     15  C   UNL     1     -10.754  16.514  70.060  0.00  0.00    +0.003 A 
ATOM     16  C   UNL     1      -8.954  15.408  67.266  0.00  0.00    -0.016 A 
ATOM     17  C   UNL     1      -7.641  15.800  67.204  0.00  0.00    +0.036 A 
ENDROOT
BRANCH   7  18
ATOM     18  N   UNL     1     -11.446  14.447  66.492  0.00  0.00    -0.203 NA
ATOM     19  C   UNL     1     -12.326  14.072  65.424  0.00  0.00    +0.242 C 
ATOM     20  O   UNL     1     -13.530  13.828  65.723  0.00  0.00    -0.273 OA
ATOM     21  C   UNL     1     -11.845  13.699  64.064  0.00  0.00    +0.096 C 
ENDBRANCH   7  18
BRANCH   1  23
ATOM     22  C   UNL     1      -5.802  16.682  69.561  0.00  0.00    +0.253 C 
ATOM     23  O   UNL     1      -5.981  17.174  68.320  0.00  0.00    -0.468 OA
ENDBRANCH   1  23
BRANCH   2  24
ATOM     24  O   UNL     1      -7.927  19.229  68.372  0.00  0.00    -0.465 OA
ATOM     25  C   UNL     1      -7.421  20.181  67.471  0.00  0.00    +0.253 C 
ENDBRANCH   2  24
BRANCH   3  26
ATOM     26  O   UNL     1     -10.623  18.364  68.281  0.00  0.00    -0.468 OA
ATOM     27  C   UNL     1     -10.807  18.936  66.987  0.00  0.00    +0.253 C 
ENDBRANCH   3  26
BRANCH  13  28
ATOM     28  O   UNL     1     -13.111  15.867  72.782  0.00  0.00    -0.468 OA
ATOM     29  C   UNL     1     -12.457  15.750  74.038  0.00  0.00    +0.253 C 
ENDBRANCH  13  28
TORSDOF 5
ENDMDL
MODEL 2
REMARK VINA RESULT:      -6.4      2.289      5.592
REMARK  Name = 
REMARK  5 active torsions:
REMARK  status: ('A' for Active; 'I' for Inactive)
REMARK    1  A    between atoms: O_2  and  C_3
REMARK    2  A    between atoms: C_7  and  O_8
REMARK    3  A    between atoms: C_10  and  O_11
REMARK    4  A    between atoms: C_16  and  O_17
REMARK    5  A    between atoms: C_23  and  N_24
REMARK                            x       y       z     vdW  Elec       q    Type
REMARK                         _______ _______ _______ _____ _____    ______ ____
ROOT
ATOM      1  C   UNL     1     -10.504  12.108  64.852  0.00  0.00    +0.175 A 
ATOM      2  C   UNL     1     -10.200  11.551  66.088  0.00  0.00    +0.206 A 
ATOM      3  C   UNL     1     -10.174  12.337  67.234  0.00  0.00    +0.175 A 
ATOM      4  C   UNL     1     -10.147  13.707  67.013  0.00  0.00    +0.033 A 
ATOM      5  C   UNL     1     -10.612  14.344  68.252  0.00  0.00    +0.001 A 
ATOM      6  C   UNL     1     -10.537  15.632  68.624  0.00  0.00    +0.001 A 
ATOM      7  C   UNL     1      -9.968  16.882  67.734  0.00  0.00    +0.118 C 
ATOM      8  C   UNL     1     -10.807  16.388  66.371  0.00  0.00    +0.031 C 
ATOM      9  C   UNL     1      -9.887  15.717  65.453  0.00  0.00    +0.029 C 
ATOM     10  C   UNL     1     -10.995  16.335  69.708  0.00  0.00    +0.043 A 
ATOM     11  C   UNL     1     -11.754  15.753  70.721  0.00  0.00    +0.229 A 
ATOM     12  O   UNL     1     -11.574  16.162  71.898  0.00  0.00    -0.283 OA
ATOM     13  C   UNL     1     -12.565  14.627  70.651  0.00  0.00    +0.177 A 
ATOM     14  C   UNL     1     -12.545  13.621  69.694  0.00  0.00    +0.040 A 
ATOM     15  C   UNL     1     -11.543  13.437  68.748  0.00  0.00    +0.003 A 
ATOM     16  C   UNL     1      -9.914  14.252  65.756  0.00  0.00    -0.016 A 
ATOM     17  C   UNL     1     -10.205  13.455  64.678  0.00  0.00    +0.036 A 
ENDROOT
BRANCH   7  18
ATOM     18  N   UNL     1      -8.612  16.090  67.385  0.00  0.00    -0.203 NA
ATOM     19  C   UNL     1      -7.441  16.861  67.684  0.00  0.00    +0.242 C 
ATOM     20  O   UNL     1      -7.382  17.410  68.822  0.00  0.00    -0.273 OA
ATOM     21  C   UNL     1      -6.446  17.265  66.652  0.00  0.00    +0.096 C 
ENDBRANCH   7  18
BRANCH   1  23
ATOM     22  C   UNL     1     -12.414  12.204  63.482  0.00  0.00    +0.253 C 
ATOM     23  O   UNL     1     -11.427  11.463  64.022  0.00  0.00    -0.468 OA
ENDBRANCH   1  23
BRANCH   2  24
ATOM     24  O   UNL     1     -10.283  10.193  66.278  0.00  0.00    -0.465 OA
ATOM     25  C   UNL     1      -9.353   9.267  65.775  0.00  0.00    +0.253 C 
ENDBRANCH   2  24
BRANCH   3  26
ATOM     26  O   UNL     1      -9.504  11.915  68.388  0.00  0.00    -0.468 OA
ATOM     27  C   UNL     1      -8.085  11.884  68.246  0.00  0.00    +0.253 C 
ENDBRANCH   3  26
BRANCH  13  28
ATOM     28  O   UNL     1     -13.369  14.453  71.751  0.00  0.00    -0.468 OA
ATOM     29  C   UNL     1     -14.762  14.733  71.740  0.00  0.00    +0.253 C 
ENDBRANCH  13  28
TORSDOF 5
ENDMDL
MODEL 3
REMARK VINA RESULT:      -6.0      2.871      3.880
REMARK  Name = 
REMARK  5 active torsions:
REMARK  status: ('A' for Active; 'I' for Inactive)
REMARK    1  A    between atoms: O_2  and  C_3
REMARK    2  A    between atoms: C_7  and  O_8
REMARK    3  A    between atoms: C_10  and  O_11
REMARK    4  A    between atoms: C_16  and  O_17
REMARK    5  A    between atoms: C_23  and  N_24
REMARK                            x       y       z     vdW  Elec       q    Type
REMARK                         _______ _______ _______ _____ _____    ______ ____
ROOT
ATOM      1  C   UNL     1      -8.444  15.314  66.846  0.00  0.00    +0.175 A 
ATOM      2  C   UNL     1      -9.830  15.371  66.749  0.00  0.00    +0.206 A 
ATOM      3  C   UNL     1     -10.620  14.356  67.275  0.00  0.00    +0.175 A 
ATOM      4  C   UNL     1      -9.947  13.184  67.591  0.00  0.00    +0.033 A 
ATOM      5  C   UNL     1     -10.791  12.457  68.549  0.00  0.00    +0.001 A 
ATOM      6  C   UNL     1     -10.702  11.182  68.962  0.00  0.00    +0.001 A 
ATOM      7  C   UNL     1      -9.546  10.096  68.560  0.00  0.00    +0.118 C 
ATOM      8  C   UNL     1      -8.316  11.207  68.803  0.00  0.00    +0.031 C 
ATOM      9  C   UNL     1      -7.858  11.712  67.509  0.00  0.00    +0.029 C 
ATOM     10  C   UNL     1     -11.382  10.436  69.889  0.00  0.00    +0.043 A 
ATOM     11  C   UNL     1     -12.389  10.964  70.694  0.00  0.00    +0.229 A 
ATOM     12  O   UNL     1     -13.364  10.219  70.978  0.00  0.00    -0.283 OA
ATOM     13  C   UNL     1     -12.574  12.284  71.086  0.00  0.00    +0.177 A 
ATOM     14  C   UNL     1     -12.043  13.427  70.506  0.00  0.00    +0.040 A 
ATOM     15  C   UNL     1     -11.404  13.476  69.272  0.00  0.00    +0.003 A 
ATOM     16  C   UNL     1      -8.638  12.947  67.188  0.00  0.00    -0.016 A 
ATOM     17  C   UNL     1      -7.869  14.051  66.920  0.00  0.00    +0.036 A 
ENDROOT
BRANCH   7  18
ATOM     18  N   UNL     1      -9.729  10.397  66.991  0.00  0.00    -0.203 NA
ATOM     19  C   UNL     1      -9.841   9.195  66.217  0.00  0.00    +0.242 C 
ATOM     20  O   UNL     1     -10.657   8.318  66.623  0.00  0.00    -0.273 OA
ATOM     21  C   UNL     1      -8.874   8.821  65.148  0.00  0.00    +0.096 C 
ENDBRANCH   7  18
BRANCH   1  23
ATOM     22  C   UNL     1      -7.044  17.139  66.349  0.00  0.00    +0.253 C 
ATOM     23  O   UNL     1      -7.744  16.449  67.270  0.00  0.00    -0.468 OA
ENDBRANCH   1  23
BRANCH   2  24
ATOM     24  O   UNL     1     -10.460  16.561  66.479  0.00  0.00    -0.465 OA
ATOM     25  C   UNL     1     -10.723  17.551  67.441  0.00  0.00    +0.253 C 
ENDBRANCH   2  24
BRANCH   3  26
ATOM     26  O   UNL     1     -11.944  14.179  66.860  0.00  0.00    -0.468 OA
ATOM     27  C   UNL     1     -12.065  13.691  65.526  0.00  0.00    +0.253 C 
ENDBRANCH   3  26
BRANCH  13  28
ATOM     28  O   UNL     1     -13.513  12.441  72.076  0.00  0.00    -0.468 OA
ATOM     29  C   UNL     1     -14.087  13.700  72.401  0.00  0.00    +0.253 C 
ENDBRANCH  13  28
TORSDOF 5
ENDMDL
MODEL 4
REMARK VINA RESULT:      -6.0      3.208      5.780
REMARK  Name = 
REMARK  5 active torsions:
REMARK  status: ('A' for Active; 'I' for Inactive)
REMARK    1  A    between atoms: O_2  and  C_3
REMARK    2  A    between atoms: C_7  and  O_8
REMARK    3  A    between atoms: C_10  and  O_11
REMARK    4  A    between atoms: C_16  and  O_17
REMARK    5  A    between atoms: C_23  and  N_24
REMARK                            x       y       z     vdW  Elec       q    Type
REMARK                         _______ _______ _______ _____ _____    ______ ____
ROOT
ATOM      1  C   UNL     1      -9.475  11.044  64.676  0.00  0.00    +0.175 A 
ATOM      2  C   UNL     1      -8.839  10.797  65.887  0.00  0.00    +0.206 A 
ATOM      3  C   UNL     1      -9.248  11.440  67.048  0.00  0.00    +0.175 A 
ATOM      4  C   UNL     1     -10.076  12.538  66.858  0.00  0.00    +0.033 A 
ATOM      5  C   UNL     1     -10.778  12.764  68.128  0.00  0.00    +0.001 A 
ATOM      6  C   UNL     1     -11.490  13.830  68.527  0.00  0.00    +0.001 A 
ATOM      7  C   UNL     1     -11.845  15.162  67.644  0.00  0.00    +0.118 C 
ATOM      8  C   UNL     1     -12.266  14.249  66.304  0.00  0.00    +0.031 C 
ATOM      9  C   UNL     1     -11.170  14.277  65.336  0.00  0.00    +0.029 C 
ATOM     10  C   UNL     1     -12.233  14.111  69.643  0.00  0.00    +0.043 A 
ATOM     11  C   UNL     1     -12.431  13.192  70.671  0.00  0.00    +0.229 A 
ATOM     12  O   UNL     1     -12.488  13.632  71.850  0.00  0.00    -0.283 OA
ATOM     13  C   UNL     1     -12.386  11.804  70.607  0.00  0.00    +0.177 A 
ATOM     14  C   UNL     1     -11.797  11.017  69.627  0.00  0.00    +0.040 A 
ATOM     15  C   UNL     1     -10.935  11.479  68.639  0.00  0.00    +0.003 A 
ATOM     16  C   UNL     1     -10.281  13.104  65.606  0.00  0.00    -0.016 A 
ATOM     17  C   UNL     1     -10.071  12.290  64.522  0.00  0.00    +0.036 A 
ENDROOT
BRANCH   7  18
ATOM     18  N   UNL     1     -10.306  15.364  67.226  0.00  0.00    -0.203 NA
ATOM     19  C   UNL     1      -9.815  16.666  67.572  0.00  0.00    +0.242 C 
ATOM     20  O   UNL     1     -10.038  17.075  68.748  0.00  0.00    -0.273 OA
ATOM     21  C   UNL     1      -9.316  17.643  66.566  0.00  0.00    +0.096 C 
ENDBRANCH   7  18
BRANCH   1  23
ATOM     22  C   UNL     1      -9.409   9.950  62.594  0.00  0.00    +0.253 C 
ATOM     23  O   UNL     1      -9.846   9.964  63.868  0.00  0.00    -0.468 OA
ENDBRANCH   1  23
BRANCH   2  24
ATOM     24  O   UNL     1      -8.065   9.673  66.049  0.00  0.00    -0.465 OA
ATOM     25  C   UNL     1      -6.767   9.527  65.529  0.00  0.00    +0.253 C 
ENDBRANCH   2  24
BRANCH   3  26
ATOM     26  O   UNL     1      -8.410  11.523  68.166  0.00  0.00    -0.468 OA
ATOM     27  C   UNL     1      -7.274  12.363  67.967  0.00  0.00    +0.253 C 
ENDBRANCH   3  26
BRANCH  13  28
ATOM     28  O   UNL     1     -12.865  11.181  71.733  0.00  0.00    -0.468 OA
ATOM     29  C   UNL     1     -13.265   9.818  71.748  0.00  0.00    +0.253 C 
ENDBRANCH  13  28
TORSDOF 5
ENDMDL
MODEL 5
REMARK VINA RESULT:      -5.6      2.132      5.176
REMARK  Name = 
REMARK  5 active torsions:
REMARK  status: ('A' for Active; 'I' for Inactive)
REMARK    1  A    between atoms: O_2  and  C_3
REMARK    2  A    between atoms: C_7  and  O_8
REMARK    3  A    between atoms: C_10  and  O_11
REMARK    4  A    between atoms: C_16  and  O_17
REMARK    5  A    between atoms: C_23  and  N_24
REMARK                            x       y       z     vdW  Elec       q    Type
REMARK                         _______ _______ _______ _____ _____    ______ ____
ROOT
ATOM      1  C   UNL     1      -6.884  17.351  67.989  0.00  0.00    +0.175 A 
ATOM      2  C   UNL     1      -6.451  16.075  68.333  0.00  0.00    +0.206 A 
ATOM      3  C   UNL     1      -7.359  15.035  68.484  0.00  0.00    +0.175 A 
ATOM      4  C   UNL     1      -8.689  15.419  68.589  0.00  0.00    +0.033 A 
ATOM      5  C   UNL     1      -9.497  14.241  68.248  0.00  0.00    +0.001 A 
ATOM      6  C   UNL     1     -10.810  14.030  68.433  0.00  0.00    +0.001 A 
ATOM      7  C   UNL     1     -11.903  15.092  69.028  0.00  0.00    +0.118 C 
ATOM      8  C   UNL     1     -11.320  16.338  68.073  0.00  0.00    +0.031 C 
ATOM      9  C   UNL     1     -10.481  17.219  68.885  0.00  0.00    +0.029 C 
ATOM     10  C   UNL     1     -11.665  13.013  68.094  0.00  0.00    +0.043 A 
ATOM     11  C   UNL     1     -11.262  11.898  67.363  0.00  0.00    +0.229 A 
ATOM     12  O   UNL     1     -11.790  10.790  67.645  0.00  0.00    -0.283 OA
ATOM     13  C   UNL     1     -10.199  11.789  66.475  0.00  0.00    +0.177 A 
ATOM     14  C   UNL     1      -9.091  12.618  66.366  0.00  0.00    +0.040 A 
ATOM     15  C   UNL     1      -8.725  13.589  67.291  0.00  0.00    +0.003 A 
ATOM     16  C   UNL     1      -9.067  16.743  68.778  0.00  0.00    -0.016 A 
ATOM     17  C   UNL     1      -8.175  17.700  68.366  0.00  0.00    +0.036 A 
ENDROOT
BRANCH   7  18
ATOM     18  N   UNL     1     -10.978  15.418  70.302  0.00  0.00    -0.203 NA
ATOM     19  C   UNL     1     -11.653  15.168  71.542  0.00  0.00    +0.242 C 
ATOM     20  O   UNL     1     -12.245  14.057  71.666  0.00  0.00    -0.273 OA
ATOM     21  C   UNL     1     -11.919  16.228  72.554  0.00  0.00    +0.096 C 
ENDBRANCH   7  18
BRANCH   1  23
ATOM     22  C   UNL     1      -6.824  18.144  65.775  0.00  0.00    +0.253 C 
ATOM     23  O   UNL     1      -6.218  18.046  66.973  0.00  0.00    -0.468 OA
ENDBRANCH   1  23
BRANCH   2  24
ATOM     24  O   UNL     1      -5.134  15.721  68.170  0.00  0.00    -0.465 OA
ATOM     25  C   UNL     1      -4.071  16.272  68.906  0.00  0.00    +0.253 C 
ENDBRANCH   2  24
BRANCH   3  26
ATOM     26  O   UNL     1      -7.024  13.877  69.196  0.00  0.00    -0.468 OA
ATOM     27  C   UNL     1      -6.483  14.138  70.489  0.00  0.00    +0.253 C 
ENDBRANCH   3  26
BRANCH  13  28
ATOM     28  O   UNL     1     -10.213  10.633  65.733  0.00  0.00    -0.468 OA
ATOM     29  C   UNL     1     -10.287  10.629  64.314  0.00  0.00    +0.253 C 
ENDBRANCH  13  28
TORSDOF 5
ENDMDL
MODEL 6
REMARK VINA RESULT:      -5.5      4.350      7.944
REMARK  Name = 
REMARK  5 active torsions:
REMARK  status: ('A' for Active; 'I' for Inactive)
REMARK    1  A    between atoms: O_2  and  C_3
REMARK    2  A    between atoms: C_7  and  O_8
REMARK    3  A    between atoms: C_10  and  O_11
REMARK    4  A    between atoms: C_16  and  O_17
REMARK    5  A    between atoms: C_23  and  N_24
REMARK                            x       y       z     vdW  Elec       q    Type
REMARK                         _______ _______ _______ _____ _____    ______ ____
ROOT
ATOM      1  C   UNL     1     -11.899   9.564  70.612  0.00  0.00    +0.175 A 
ATOM      2  C   UNL     1     -10.924   8.763  70.029  0.00  0.00    +0.206 A 
ATOM      3  C   UNL     1      -9.951   9.315  69.205  0.00  0.00    +0.175 A 
ATOM      4  C   UNL     1     -10.210  10.606  68.765  0.00  0.00    +0.033 A 
ATOM      5  C   UNL     1      -8.920  11.179  68.355  0.00  0.00    +0.001 A 
ATOM      6  C   UNL     1      -8.674  12.291  67.643  0.00  0.00    +0.001 A 
ATOM      7  C   UNL     1      -9.772  13.376  67.102  0.00  0.00    +0.118 C 
ATOM      8  C   UNL     1     -10.571  13.411  68.573  0.00  0.00    +0.031 C 
ATOM      9  C   UNL     1     -11.785  12.600  68.483  0.00  0.00    +0.029 C 
ATOM     10  C   UNL     1      -7.528  12.944  67.272  0.00  0.00    +0.043 A 
ATOM     11  C   UNL     1      -6.258  12.525  67.662  0.00  0.00    +0.229 A 
ATOM     12  O   UNL     1      -5.314  12.671  66.841  0.00  0.00    -0.283 OA
ATOM     13  C   UNL     1      -5.902  11.778  68.778  0.00  0.00    +0.177 A 
ATOM     14  C   UNL     1      -6.721  10.979  69.564  0.00  0.00    +0.040 A 
ATOM     15  C   UNL     1      -8.016  10.594  69.236  0.00  0.00    +0.003 A 
ATOM     16  C   UNL     1     -11.451  11.210  68.925  0.00  0.00    -0.016 A 
ATOM     17  C   UNL     1     -12.241  10.731  69.938  0.00  0.00    +0.036 A 
ENDROOT
BRANCH   7  18
ATOM     18  N   UNL     1     -10.679  12.219  66.451  0.00  0.00    -0.203 NA
ATOM     19  C   UNL     1     -11.130  12.558  65.133  0.00  0.00    +0.242 C 
ATOM     20  O   UNL     1     -10.265  12.988  64.317  0.00  0.00    -0.273 OA
ATOM     21  C   UNL     1     -12.569  12.690  64.772  0.00  0.00    +0.096 C 
ENDBRANCH   7  18
BRANCH   1  23
ATOM     22  C   UNL     1     -13.401   8.955  72.318  0.00  0.00    +0.253 C 
ATOM     23  O   UNL     1     -12.181   9.411  71.974  0.00  0.00    -0.468 OA
ENDBRANCH   1  23
BRANCH   2  24
ATOM     24  O   UNL     1     -10.667   7.508  70.526  0.00  0.00    -0.465 OA
ATOM     25  C   UNL     1     -11.449   6.374  70.248  0.00  0.00    +0.253 C 
ENDBRANCH   2  24
BRANCH   3  26
ATOM     26  O   UNL     1      -9.224   8.523  68.310  0.00  0.00    -0.468 OA
ATOM     27  C   UNL     1     -10.001   8.036  67.217  0.00  0.00    +0.253 C 
ENDBRANCH   3  26
BRANCH  13  28
ATOM     28  O   UNL     1      -4.549  11.739  69.012  0.00  0.00    -0.468 OA
ATOM     29  C   UNL     1      -3.964  12.189  70.226  0.00  0.00    +0.253 C 
ENDBRANCH  13  28
TORSDOF 5
ENDMDL
MODEL 7
REMARK VINA RESULT:      -5.5      2.655      5.887
REMARK  Name = 
REMARK  5 active torsions:
REMARK  status: ('A' for Active; 'I' for Inactive)
REMARK    1  A    between atoms: O_2  and  C_3
REMARK    2  A    between atoms: C_7  and  O_8
REMARK    3  A    between atoms: C_10  and  O_11
REMARK    4  A    between atoms: C_16  and  O_17
REMARK    5  A    between atoms: C_23  and  N_24
REMARK                            x       y       z     vdW  Elec       q    Type
REMARK                         _______ _______ _______ _____ _____    ______ ____
ROOT
ATOM      1  C   UNL     1      -5.966  13.489  68.098  0.00  0.00    +0.175 A 
ATOM      2  C   UNL     1      -6.738  12.359  67.858  0.00  0.00    +0.206 A 
ATOM      3  C   UNL     1      -8.104  12.468  67.631  0.00  0.00    +0.175 A 
ATOM      4  C   UNL     1      -8.667  13.689  67.973  0.00  0.00    +0.033 A 
ATOM      5  C   UNL     1      -9.932  13.794  67.235  0.00  0.00    +0.001 A 
ATOM      6  C   UNL     1     -10.946  14.658  67.405  0.00  0.00    +0.001 A 
ATOM      7  C   UNL     1     -11.004  15.912  68.456  0.00  0.00    +0.118 C 
ATOM      8  C   UNL     1      -9.455  16.411  68.057  0.00  0.00    +0.031 C 
ATOM      9  C   UNL     1      -8.525  15.981  69.101  0.00  0.00    +0.029 C 
ATOM     10  C   UNL     1     -12.121  14.886  66.738  0.00  0.00    +0.043 A 
ATOM     11  C   UNL     1     -12.486  14.188  65.589  0.00  0.00    +0.229 A 
ATOM     12  O   UNL     1     -13.706  13.922  65.426  0.00  0.00    -0.283 OA
ATOM     13  C   UNL     1     -11.660  13.559  64.664  0.00  0.00    +0.177 A 
ATOM     14  C   UNL     1     -10.339  13.167  64.831  0.00  0.00    +0.040 A 
ATOM     15  C   UNL     1      -9.664  13.123  66.046  0.00  0.00    +0.003 A 
ATOM     16  C   UNL     1      -7.978  14.643  68.713  0.00  0.00    -0.016 A 
ATOM     17  C   UNL     1      -6.608  14.581  68.671  0.00  0.00    +0.036 A 
ENDROOT
BRANCH   7  18
ATOM     18  N   UNL     1     -10.561  14.976  69.685  0.00  0.00    -0.203 NA
ATOM     19  C   UNL     1     -11.617  14.796  70.639  0.00  0.00    +0.242 C 
ATOM     20  O   UNL     1     -12.754  14.473  70.190  0.00  0.00    -0.273 OA
ATOM     21  C   UNL     1     -11.515  15.230  72.060  0.00  0.00    +0.096 C 
ENDBRANCH   7  18
BRANCH   1  23
ATOM     22  C   UNL     1      -3.617  13.632  68.134  0.00  0.00    +0.253 C 
ATOM     23  O   UNL     1      -4.755  13.645  67.413  0.00  0.00    -0.468 OA
ENDBRANCH   1  23
BRANCH   2  24
ATOM     24  O   UNL     1      -6.145  11.180  67.477  0.00  0.00    -0.465 OA
ATOM     25  C   UNL     1      -6.120  10.699  66.156  0.00  0.00    +0.253 C 
ENDBRANCH   2  24
BRANCH   3  26
ATOM     26  O   UNL     1      -8.955  11.367  67.782  0.00  0.00    -0.468 OA
ATOM     27  C   UNL     1      -8.843  10.727  69.052  0.00  0.00    +0.253 C 
ENDBRANCH   3  26
BRANCH  13  28
ATOM     28  O   UNL     1     -12.308  13.171  63.517  0.00  0.00    -0.468 OA
ATOM     29  C   UNL     1     -12.507  11.808  63.168  0.00  0.00    +0.253 C 
ENDBRANCH  13  28
TORSDOF 5
ENDMDL
MODEL 8
REMARK VINA RESULT:      -5.4      6.838      9.184
REMARK  Name = 
REMARK  5 active torsions:
REMARK  status: ('A' for Active; 'I' for Inactive)
REMARK    1  A    between atoms: O_2  and  C_3
REMARK    2  A    between atoms: C_7  and  O_8
REMARK    3  A    between atoms: C_10  and  O_11
REMARK    4  A    between atoms: C_16  and  O_17
REMARK    5  A    between atoms: C_23  and  N_24
REMARK                            x       y       z     vdW  Elec       q    Type
REMARK                         _______ _______ _______ _____ _____    ______ ____
ROOT
ATOM      1  C   UNL     1      -9.626   6.608  72.882  0.00  0.00    +0.175 A 
ATOM      2  C   UNL     1      -8.962   7.816  72.701  0.00  0.00    +0.206 A 
ATOM      3  C   UNL     1      -9.016   8.480  71.482  0.00  0.00    +0.175 A 
ATOM      4  C   UNL     1      -9.481   7.724  70.415  0.00  0.00    +0.033 A 
ATOM      5  C   UNL     1      -9.927   8.674  69.387  0.00  0.00    +0.001 A 
ATOM      6  C   UNL     1     -10.225   8.450  68.097  0.00  0.00    +0.001 A 
ATOM      7  C   UNL     1     -10.252   7.005  67.329  0.00  0.00    +0.118 C 
ATOM      8  C   UNL     1     -11.086   6.273  68.584  0.00  0.00    +0.031 C 
ATOM      9  C   UNL     1     -10.154   5.482  69.387  0.00  0.00    +0.029 C 
ATOM     10  C   UNL     1     -10.711   9.237  67.085  0.00  0.00    +0.043 A 
ATOM     11  C   UNL     1     -11.062  10.573  67.268  0.00  0.00    +0.229 A 
ATOM     12  O   UNL     1     -10.843  11.372  66.320  0.00  0.00    -0.283 OA
ATOM     13  C   UNL     1     -11.455  11.207  68.441  0.00  0.00    +0.177 A 
ATOM     14  C   UNL     1     -11.254  10.782  69.747  0.00  0.00    +0.040 A 
ATOM     15  C   UNL     1     -10.413   9.745  70.131  0.00  0.00    +0.003 A 
ATOM     16  C   UNL     1      -9.645   6.347  70.497  0.00  0.00    -0.016 A 
ATOM     17  C   UNL     1      -9.823   5.823  71.752  0.00  0.00    +0.036 A 
ENDROOT
BRANCH   7  18
ATOM     18  N   UNL     1      -8.784   6.628  67.868  0.00  0.00    -0.203 NA
ATOM     19  C   UNL     1      -7.869   6.349  66.800  0.00  0.00    +0.242 C 
ATOM     20  O   UNL     1      -7.819   7.179  65.848  0.00  0.00    -0.273 OA
ATOM     21  C   UNL     1      -7.198   5.030  66.626  0.00  0.00    +0.096 C 
ENDBRANCH   7  18
BRANCH   1  23
ATOM     22  C   UNL     1     -10.143   5.351  74.803  0.00  0.00    +0.253 C 
ATOM     23  O   UNL     1     -10.403   6.423  74.031  0.00  0.00    -0.468 OA
ENDBRANCH   1  23
BRANCH   2  24
ATOM     24  O   UNL     1      -8.558   8.556  73.786  0.00  0.00    -0.465 OA
ATOM     25  C   UNL     1      -7.482   8.212  74.621  0.00  0.00    +0.253 C 
ENDBRANCH   2  24
BRANCH   3  26
ATOM     26  O   UNL     1      -8.069   9.454  71.144  0.00  0.00    -0.468 OA
ATOM     27  C   UNL     1      -6.753   8.933  70.964  0.00  0.00    +0.253 C 
ENDBRANCH   3  26
BRANCH  13  28
ATOM     28  O   UNL     1     -11.969  12.466  68.244  0.00  0.00    -0.468 OA
ATOM     29  C   UNL     1     -11.799  13.522  69.180  0.00  0.00    +0.253 C 
ENDBRANCH  13  28
TORSDOF 5
ENDMDL
MODEL 9
REMARK VINA RESULT:      -5.4      4.862      7.509
REMARK  Name = 
REMARK  5 active torsions:
REMARK  status: ('A' for Active; 'I' for Inactive)
REMARK    1  A    between atoms: O_2  and  C_3
REMARK    2  A    between atoms: C_7  and  O_8
REMARK    3  A    between atoms: C_10  and  O_11
REMARK    4  A    between atoms: C_16  and  O_17
REMARK    5  A    between atoms: C_23  and  N_24
REMARK                            x       y       z     vdW  Elec       q    Type
REMARK                         _______ _______ _______ _____ _____    ______ ____
ROOT
ATOM      1  C   UNL     1      -8.875   9.643  62.894  0.00  0.00    +0.175 A 
ATOM      2  C   UNL     1      -8.035   9.379  63.970  0.00  0.00    +0.206 A 
ATOM      3  C   UNL     1      -8.402   9.740  65.261  0.00  0.00    +0.175 A 
ATOM      4  C   UNL     1      -9.460  10.634  65.349  0.00  0.00    +0.033 A 
ATOM      5  C   UNL     1     -10.006  10.510  66.707  0.00  0.00    +0.001 A 
ATOM      6  C   UNL     1     -10.863  11.316  67.354  0.00  0.00    +0.001 A 
ATOM      7  C   UNL     1     -11.611  12.642  66.753  0.00  0.00    +0.118 C 
ATOM      8  C   UNL     1     -12.017  11.857  65.331  0.00  0.00    +0.031 C 
ATOM      9  C   UNL     1     -11.100  12.273  64.270  0.00  0.00    +0.029 C 
ATOM     10  C   UNL     1     -11.482  11.258  68.575  0.00  0.00    +0.043 A 
ATOM     11  C   UNL     1     -11.334  10.182  69.448  0.00  0.00    +0.229 A 
ATOM     12  O   UNL     1     -11.314  10.426  70.683  0.00  0.00    -0.283 OA
ATOM     13  C   UNL     1     -11.008   8.865  69.144  0.00  0.00    +0.177 A 
ATOM     14  C   UNL     1     -10.412   8.381  67.988  0.00  0.00    +0.040 A 
ATOM     15  C   UNL     1      -9.816   9.165  67.006  0.00  0.00    +0.003 A 
ATOM     16  C   UNL     1      -9.955  11.309  64.240  0.00  0.00    -0.016 A 
ATOM     17  C   UNL     1      -9.735  10.727  63.018  0.00  0.00    +0.036 A 
ENDROOT
BRANCH   7  18
ATOM     18  N   UNL     1     -10.224  13.250  66.213  0.00  0.00    -0.203 NA
ATOM     19  C   UNL     1     -10.009  14.595  66.661  0.00  0.00    +0.242 C 
ATOM     20  O   UNL     1     -10.174  14.829  67.893  0.00  0.00    -0.273 OA
ATOM     21  C   UNL     1      -9.877  15.752  65.732  0.00  0.00    +0.096 C 
ENDBRANCH   7  18
BRANCH   1  23
ATOM     22  C   UNL     1      -8.943   8.921  60.655  0.00  0.00    +0.253 C 
ATOM     23  O   UNL     1      -9.122   8.632  61.958  0.00  0.00    -0.468 OA
ENDBRANCH   1  23
BRANCH   2  24
ATOM     24  O   UNL     1      -7.028   8.452  63.855  0.00  0.00    -0.465 OA
ATOM     25  C   UNL     1      -5.833   8.668  63.147  0.00  0.00    +0.253 C 
ENDBRANCH   2  24
BRANCH   3  26
ATOM     26  O   UNL     1      -7.450   9.855  66.280  0.00  0.00    -0.468 OA
ATOM     27  C   UNL     1      -6.492  10.888  66.054  0.00  0.00    +0.253 C 
ENDBRANCH   3  26
BRANCH  13  28
ATOM     28  O   UNL     1     -11.181   7.996  70.193  0.00  0.00    -0.468 OA
ATOM     29  C   UNL     1     -11.612   6.653  70.018  0.00  0.00    +0.253 C 
ENDBRANCH  13  28
TORSDOF 5
ENDMDL
