MODEL 1
REMARK VINA RESULT:      -6.7      0.000      0.000
REMARK  Name = 
REMARK  7 active torsions:
REMARK  status: ('A' for Active; 'I' for Inactive)
REMARK    1  A    between atoms: O_2  and  C_3
REMARK    2  A    between atoms: C_3  and  C_4
REMARK    3  A    between atoms: CA_5  and  C_6
REMARK    4  A    between atoms: CA_12  and  N_13
REMARK    5  A    between atoms: C_14  and  C_16
REMARK    6  A    between atoms: C_16  and  C_20
REMARK    7  A    between atoms: N_17  and  O_18
REMARK                            x       y       z     vdW  Elec       q    Type
REMARK                         _______ _______ _______ _____ _____    ______ ____
ROOT
ATOM      1  C   UNL     1      -8.450  17.733  67.394  0.00  0.00    +0.016 C 
ATOM      2  C   UNL     1      -7.689  16.475  67.110  0.00  0.00    +0.085 C 
ATOM      3  S   UNL     1      -8.762  15.171  66.444  0.00  0.00    -0.114 S 
ATOM      4  C   UNL     1     -10.461  15.658  67.161  0.00  0.00    +0.157 C 
ATOM      5  N   UNL     1     -10.488  16.919  66.314  0.00  0.00    -0.242 N 
ATOM      6  C   UNL     1     -10.775  16.219  65.078  0.00  0.00    +0.253 C 
ATOM      7  O   UNL     1     -11.385  16.719  64.081  0.00  0.00    -0.273 OA
ATOM      8  CA  UNL     1     -11.554  15.140  65.991  0.00  0.00    +0.201 C 
ATOM      9  CA  UNL     1      -9.630  17.940  66.823  0.00  0.00    +0.130 C 
ENDROOT
BRANCH   9  10
ATOM     10  C   UNL     1     -10.200  19.289  66.704  0.00  0.00    +0.401 C 
ATOM     11  OXT UNL     1     -10.928  19.689  67.833  0.00  0.00    -0.239 OA
ATOM     12  O   UNL     1     -10.607  19.755  65.613  0.00  0.00    -0.239 OA
ENDBRANCH   9  10
BRANCH   8  13
ATOM     13  N   UNL     1     -10.723  13.876  65.517  0.00  0.00    -0.190 NA
ATOM     14  C   UNL     1     -11.613  12.789  65.393  0.00  0.00    +0.288 C 
ATOM     15  O   UNL     1     -12.794  12.955  64.958  0.00  0.00    -0.267 OA
BRANCH  14  16
ATOM     16  C   UNL     1     -11.310  11.398  65.754  0.00  0.00    +0.192 C 
ATOM     17  N   UNL     1     -11.670  11.103  66.973  0.00  0.00    -0.077 NA
BRANCH  16  18
ATOM     18  C   UNL     1     -10.067  10.770  65.265  0.00  0.00    +0.115 A 
ATOM     19  N   UNL     1      -9.795  10.606  63.972  0.00  0.00    -0.220 NA
ATOM     20  C   UNL     1      -8.955   9.577  63.741  0.00  0.00    +0.201 A 
ATOM     21  N   UNL     1      -8.754   8.844  62.525  0.00  0.00    -0.100 NA
ATOM     22  S   UNL     1      -7.898   9.731  65.085  0.00  0.00    -0.048 S 
ATOM     23  C   UNL     1      -8.908  10.737  66.038  0.00  0.00    +0.059 A 
ENDBRANCH  16  18
BRANCH  17  24
ATOM     24  O   UNL     1     -12.022  12.082  67.889  0.00  0.00    -0.373 OA
ATOM     25  C   UNL     1     -11.382  12.218  69.140  0.00  0.00    +0.288 C 
ENDBRANCH  17  24
ENDBRANCH  14  16
ENDBRANCH   8  13
BRANCH   1  26
ATOM     26  C   UNL     1      -7.546  18.913  67.603  0.00  0.00    +0.167 C 
BRANCH  26  28
ATOM     27  C   UNL     1      -6.382  19.726  69.433  0.00  0.00    +0.175 C 
ATOM     28  O   UNL     1      -7.563  19.144  68.990  0.00  0.00    -0.347 OA
ENDBRANCH  26  28
ENDBRANCH   1  26
TORSDOF 7
ENDMDL
MODEL 2
REMARK VINA RESULT:      -6.3      1.824      3.214
REMARK  Name = 
REMARK  7 active torsions:
REMARK  status: ('A' for Active; 'I' for Inactive)
REMARK    1  A    between atoms: O_2  and  C_3
REMARK    2  A    between atoms: C_3  and  C_4
REMARK    3  A    between atoms: CA_5  and  C_6
REMARK    4  A    between atoms: CA_12  and  N_13
REMARK    5  A    between atoms: C_14  and  C_16
REMARK    6  A    between atoms: C_16  and  C_20
REMARK    7  A    between atoms: N_17  and  O_18
REMARK                            x       y       z     vdW  Elec       q    Type
REMARK                         _______ _______ _______ _____ _____    ______ ____
ROOT
ATOM      1  C   UNL     1      -8.399  17.838  67.482  0.00  0.00    +0.016 C 
ATOM      2  C   UNL     1      -7.556  16.637  67.181  0.00  0.00    +0.085 C 
ATOM      3  S   UNL     1      -8.545  15.266  66.518  0.00  0.00    -0.114 S 
ATOM      4  C   UNL     1     -10.265  15.630  67.258  0.00  0.00    +0.157 C 
ATOM      5  N   UNL     1     -10.389  16.892  66.420  0.00  0.00    -0.242 N 
ATOM      6  C   UNL     1     -10.642  16.180  65.183  0.00  0.00    +0.253 C 
ATOM      7  O   UNL     1     -11.297  16.643  64.197  0.00  0.00    -0.273 OA
ATOM      8  CA  UNL     1     -11.333  15.045  66.098  0.00  0.00    +0.201 C 
ATOM      9  CA  UNL     1      -9.598  17.966  66.926  0.00  0.00    +0.130 C 
ENDROOT
BRANCH   9  10
ATOM     10  C   UNL     1     -10.260  19.274  66.823  0.00  0.00    +0.401 C 
ATOM     11  OXT UNL     1     -11.045  19.592  67.939  0.00  0.00    -0.239 OA
ATOM     12  O   UNL     1     -10.671  19.737  65.732  0.00  0.00    -0.239 OA
ENDBRANCH   9  10
BRANCH   8  13
ATOM     13  N   UNL     1     -10.424  13.844  65.606  0.00  0.00    -0.190 NA
ATOM     14  C   UNL     1     -11.094  12.638  65.900  0.00  0.00    +0.288 C 
ATOM     15  O   UNL     1     -12.355  12.547  65.793  0.00  0.00    -0.267 OA
BRANCH  14  16
ATOM     16  C   UNL     1     -10.452  11.402  66.367  0.00  0.00    +0.192 C 
ATOM     17  N   UNL     1     -10.168  10.582  65.392  0.00  0.00    -0.077 NA
BRANCH  16  18
ATOM     18  C   UNL     1     -10.882  10.790  67.639  0.00  0.00    +0.115 A 
ATOM     19  N   UNL     1     -11.902  11.251  68.359  0.00  0.00    -0.220 NA
ATOM     20  C   UNL     1     -11.793  10.953  69.669  0.00  0.00    +0.201 A 
ATOM     21  N   UNL     1     -12.429  11.589  70.787  0.00  0.00    -0.100 NA
ATOM     22  S   UNL     1     -11.130   9.372  69.574  0.00  0.00    -0.048 S 
ATOM     23  C   UNL     1     -10.603   9.460  67.944  0.00  0.00    +0.059 A 
ENDBRANCH  16  18
BRANCH  17  24
ATOM     24  O   UNL     1     -10.688  10.752  64.118  0.00  0.00    -0.373 OA
ATOM     25  C   UNL     1      -9.870  10.867  62.973  0.00  0.00    +0.288 C 
ENDBRANCH  17  24
ENDBRANCH  14  16
ENDBRANCH   8  13
BRANCH   1  26
ATOM     26  C   UNL     1      -7.575  19.077  67.688  0.00  0.00    +0.167 C 
BRANCH  26  28
ATOM     27  C   UNL     1      -6.484  20.545  66.267  0.00  0.00    +0.175 C 
ATOM     28  O   UNL     1      -6.833  19.221  66.503  0.00  0.00    -0.347 OA
ENDBRANCH  26  28
ENDBRANCH   1  26
TORSDOF 7
ENDMDL
MODEL 3
REMARK VINA RESULT:      -6.0      3.458      8.373
REMARK  Name = 
REMARK  7 active torsions:
REMARK  status: ('A' for Active; 'I' for Inactive)
REMARK    1  A    between atoms: O_2  and  C_3
REMARK    2  A    between atoms: C_3  and  C_4
REMARK    3  A    between atoms: CA_5  and  C_6
REMARK    4  A    between atoms: CA_12  and  N_13
REMARK    5  A    between atoms: C_14  and  C_16
REMARK    6  A    between atoms: C_16  and  C_20
REMARK    7  A    between atoms: N_17  and  O_18
REMARK                            x       y       z     vdW  Elec       q    Type
REMARK                         _______ _______ _______ _____ _____    ______ ____
ROOT
ATOM      1  C   UNL     1      -9.024  13.687  66.805  0.00  0.00    +0.016 C 
ATOM      2  C   UNL     1      -7.781  14.083  67.541  0.00  0.00    +0.085 C 
ATOM      3  S   UNL     1      -7.618  15.886  67.670  0.00  0.00    -0.114 S 
ATOM      4  C   UNL     1      -8.603  16.479  66.148  0.00  0.00    +0.157 C 
ATOM      5  N   UNL     1      -9.901  15.969  66.755  0.00  0.00    -0.242 N 
ATOM      6  C   UNL     1     -10.001  17.044  67.723  0.00  0.00    +0.253 C 
ATOM      7  O   UNL     1     -11.087  17.475  68.223  0.00  0.00    -0.273 OA
ATOM      8  CA  UNL     1      -9.240  17.958  66.633  0.00  0.00    +0.201 C 
ATOM      9  CA  UNL     1     -10.024  14.550  66.673  0.00  0.00    +0.130 C 
ENDROOT
BRANCH   9  10
ATOM     10  C   UNL     1     -11.391  14.103  66.372  0.00  0.00    +0.401 C 
ATOM     11  OXT UNL     1     -11.743  14.251  65.024  0.00  0.00    -0.239 OA
ATOM     12  O   UNL     1     -12.336  14.227  67.188  0.00  0.00    -0.239 OA
ENDBRANCH   9  10
BRANCH   8  13
ATOM     13  N   UNL     1      -8.030  18.377  67.567  0.00  0.00    -0.190 NA
ATOM     14  C   UNL     1      -7.951  19.785  67.576  0.00  0.00    +0.288 C 
ATOM     15  O   UNL     1      -8.999  20.500  67.560  0.00  0.00    -0.267 OA
BRANCH  14  16
ATOM     16  C   UNL     1      -6.706  20.565  67.584  0.00  0.00    +0.192 C 
ATOM     17  N   UNL     1      -6.234  20.773  66.385  0.00  0.00    -0.077 NA
BRANCH  16  18
ATOM     18  C   UNL     1      -5.714  20.347  68.654  0.00  0.00    +0.115 A 
ATOM     19  N   UNL     1      -5.828  20.875  69.870  0.00  0.00    -0.220 NA
ATOM     20  C   UNL     1      -4.639  21.037  70.484  0.00  0.00    +0.201 A 
ATOM     21  N   UNL     1      -4.306  21.909  71.573  0.00  0.00    -0.100 NA
ATOM     22  S   UNL     1      -3.826  19.616  69.965  0.00  0.00    -0.048 S 
ATOM     23  C   UNL     1      -4.869  19.239  68.656  0.00  0.00    +0.059 A 
ENDBRANCH  16  18
BRANCH  17  24
ATOM     24  O   UNL     1      -6.708  20.080  65.281  0.00  0.00    -0.373 OA
ATOM     25  C   UNL     1      -5.937  19.109  64.606  0.00  0.00    +0.288 C 
ENDBRANCH  17  24
ENDBRANCH  14  16
ENDBRANCH   8  13
BRANCH   1  26
ATOM     26  C   UNL     1      -9.360  12.235  66.991  0.00  0.00    +0.167 C 
BRANCH  26  28
ATOM     27  C   UNL     1     -10.490  11.286  68.777  0.00  0.00    +0.175 C 
ATOM     28  O   UNL     1      -9.395  12.045  68.384  0.00  0.00    -0.347 OA
ENDBRANCH  26  28
ENDBRANCH   1  26
TORSDOF 7
ENDMDL
MODEL 4
REMARK VINA RESULT:      -5.9      2.823      4.639
REMARK  Name = 
REMARK  7 active torsions:
REMARK  status: ('A' for Active; 'I' for Inactive)
REMARK    1  A    between atoms: O_2  and  C_3
REMARK    2  A    between atoms: C_3  and  C_4
REMARK    3  A    between atoms: CA_5  and  C_6
REMARK    4  A    between atoms: CA_12  and  N_13
REMARK    5  A    between atoms: C_14  and  C_16
REMARK    6  A    between atoms: C_16  and  C_20
REMARK    7  A    between atoms: N_17  and  O_18
REMARK                            x       y       z     vdW  Elec       q    Type
REMARK                         _______ _______ _______ _____ _____    ______ ____
ROOT
ATOM      1  C   UNL     1      -9.773  17.515  67.958  0.00  0.00    +0.016 C 
ATOM      2  C   UNL     1     -10.683  16.698  68.824  0.00  0.00    +0.085 C 
ATOM      3  S   UNL     1     -10.297  14.927  68.727  0.00  0.00    -0.114 S 
ATOM      4  C   UNL     1      -9.501  14.793  66.998  0.00  0.00    +0.157 C 
ATOM      5  N   UNL     1      -8.310  15.622  67.452  0.00  0.00    -0.242 N 
ATOM      6  C   UNL     1      -7.721  14.552  68.233  0.00  0.00    +0.253 C 
ATOM      7  O   UNL     1      -6.481  14.433  68.486  0.00  0.00    -0.273 OA
ATOM      8  CA  UNL     1      -8.387  13.544  67.164  0.00  0.00    +0.201 C 
ATOM      9  CA  UNL     1      -8.615  17.012  67.548  0.00  0.00    +0.130 C 
ENDROOT
BRANCH   9  10
ATOM     10  C   UNL     1      -7.519  17.880  67.095  0.00  0.00    +0.401 C 
ATOM     11  OXT UNL     1      -7.455  18.016  65.702  0.00  0.00    -0.239 OA
ATOM     12  O   UNL     1      -6.415  17.937  67.689  0.00  0.00    -0.239 OA
ENDBRANCH   9  10
BRANCH   8  13
ATOM     13  N   UNL     1      -9.220  12.699  68.215  0.00  0.00    -0.190 NA
ATOM     14  C   UNL     1      -9.546  11.461  67.623  0.00  0.00    +0.288 C 
ATOM     15  O   UNL     1      -8.727  10.867  66.857  0.00  0.00    -0.267 OA
BRANCH  14  16
ATOM     16  C   UNL     1     -10.819  10.749  67.790  0.00  0.00    +0.192 C 
ATOM     17  N   UNL     1     -11.737  11.151  66.954  0.00  0.00    -0.077 NA
BRANCH  16  18
ATOM     18  C   UNL     1     -11.278  10.380  69.144  0.00  0.00    +0.115 A 
ATOM     19  N   UNL     1     -12.409  10.836  69.677  0.00  0.00    -0.220 NA
ATOM     20  C   UNL     1     -12.380  10.858  71.025  0.00  0.00    +0.201 A 
ATOM     21  N   UNL     1     -13.190  11.627  71.925  0.00  0.00    -0.100 NA
ATOM     22  S   UNL     1     -11.511   9.411  71.340  0.00  0.00    -0.048 S 
ATOM     23  C   UNL     1     -10.856   9.208  69.767  0.00  0.00    +0.059 A 
ENDBRANCH  16  18
BRANCH  17  24
ATOM     24  O   UNL     1     -11.591  12.312  66.211  0.00  0.00    -0.373 OA
ATOM     25  C   UNL     1     -12.286  12.534  65.003  0.00  0.00    +0.288 C 
ENDBRANCH  17  24
ENDBRANCH  14  16
ENDBRANCH   8  13
BRANCH   1  26
ATOM     26  C   UNL     1      -9.835  18.979  68.286  0.00  0.00    +0.167 C 
BRANCH  26  28
ATOM     27  C   UNL     1     -10.611  19.720  66.234  0.00  0.00    +0.175 C 
ATOM     28  O   UNL     1     -10.936  19.469  67.561  0.00  0.00    -0.347 OA
ENDBRANCH  26  28
ENDBRANCH   1  26
TORSDOF 7
ENDMDL
MODEL 5
REMARK VINA RESULT:      -5.8      2.781      4.066
REMARK  Name = 
REMARK  7 active torsions:
REMARK  status: ('A' for Active; 'I' for Inactive)
REMARK    1  A    between atoms: O_2  and  C_3
REMARK    2  A    between atoms: C_3  and  C_4
REMARK    3  A    between atoms: CA_5  and  C_6
REMARK    4  A    between atoms: CA_12  and  N_13
REMARK    5  A    between atoms: C_14  and  C_16
REMARK    6  A    between atoms: C_16  and  C_20
REMARK    7  A    between atoms: N_17  and  O_18
REMARK                            x       y       z     vdW  Elec       q    Type
REMARK                         _______ _______ _______ _____ _____    ______ ____
ROOT
ATOM      1  C   UNL     1      -8.620  17.546  68.350  0.00  0.00    +0.016 C 
ATOM      2  C   UNL     1      -7.720  16.411  68.731  0.00  0.00    +0.085 C 
ATOM      3  S   UNL     1      -8.484  14.800  68.389  0.00  0.00    -0.114 S 
ATOM      4  C   UNL     1     -10.342  15.218  68.487  0.00  0.00    +0.157 C 
ATOM      5  N   UNL     1     -10.240  16.087  67.243  0.00  0.00    -0.242 N 
ATOM      6  C   UNL     1     -10.143  14.964  66.330  0.00  0.00    +0.253 C 
ATOM      7  O   UNL     1     -10.507  14.982  65.113  0.00  0.00    -0.273 OA
ATOM      8  CA  UNL     1     -11.051  14.156  67.392  0.00  0.00    +0.201 C 
ATOM      9  CA  UNL     1      -9.622  17.346  67.504  0.00  0.00    +0.130 C 
ENDROOT
BRANCH   9  10
ATOM     10  C   UNL     1     -10.239  18.458  66.767  0.00  0.00    +0.401 C 
ATOM     11  OXT UNL     1     -11.198  19.158  67.512  0.00  0.00    -0.239 OA
ATOM     12  O   UNL     1     -10.451  18.413  65.532  0.00  0.00    -0.239 OA
ENDBRANCH   9  10
BRANCH   8  13
ATOM     13  N   UNL     1     -10.035  12.961  67.618  0.00  0.00    -0.190 NA
ATOM     14  C   UNL     1     -10.778  11.818  67.982  0.00  0.00    +0.288 C 
ATOM     15  O   UNL     1     -11.911  11.581  67.462  0.00  0.00    -0.267 OA
BRANCH  14  16
ATOM     16  C   UNL     1     -10.365  10.819  68.976  0.00  0.00    +0.192 C 
ATOM     17  N   UNL     1      -9.622   9.875  68.465  0.00  0.00    -0.077 NA
BRANCH  16  18
ATOM     18  C   UNL     1     -11.306  10.413  70.038  0.00  0.00    +0.115 A 
ATOM     19  N   UNL     1     -11.136   9.323  70.783  0.00  0.00    -0.220 NA
ATOM     20  C   UNL     1     -12.296   8.834  71.266  0.00  0.00    +0.201 A 
ATOM     21  N   UNL     1     -12.580   7.510  71.738  0.00  0.00    -0.100 NA
ATOM     22  S   UNL     1     -13.127  10.295  71.615  0.00  0.00    -0.048 S 
ATOM     23  C   UNL     1     -12.146  11.332  70.664  0.00  0.00    +0.059 A 
ENDBRANCH  16  18
BRANCH  17  24
ATOM     24  O   UNL     1      -9.500   9.702  67.095  0.00  0.00    -0.373 OA
ATOM     25  C   UNL     1     -10.015   8.572  66.423  0.00  0.00    +0.288 C 
ENDBRANCH  17  24
ENDBRANCH  14  16
ENDBRANCH   8  13
BRANCH   1  26
ATOM     26  C   UNL     1      -7.890  18.857  68.290  0.00  0.00    +0.167 C 
BRANCH  26  28
ATOM     27  C   UNL     1      -6.630  19.752  66.565  0.00  0.00    +0.175 C 
ATOM     28  O   UNL     1      -6.839  18.647  67.381  0.00  0.00    -0.347 OA
ENDBRANCH  26  28
ENDBRANCH   1  26
TORSDOF 7
ENDMDL
MODEL 6
REMARK VINA RESULT:      -5.8      2.400      3.855
REMARK  Name = 
REMARK  7 active torsions:
REMARK  status: ('A' for Active; 'I' for Inactive)
REMARK    1  A    between atoms: O_2  and  C_3
REMARK    2  A    between atoms: C_3  and  C_4
REMARK    3  A    between atoms: CA_5  and  C_6
REMARK    4  A    between atoms: CA_12  and  N_13
REMARK    5  A    between atoms: C_14  and  C_16
REMARK    6  A    between atoms: C_16  and  C_20
REMARK    7  A    between atoms: N_17  and  O_18
REMARK                            x       y       z     vdW  Elec       q    Type
REMARK                         _______ _______ _______ _____ _____    ______ ____
ROOT
ATOM      1  C   UNL     1      -5.814  18.734  69.477  0.00  0.00    +0.016 C 
ATOM      2  C   UNL     1      -6.035  17.267  69.677  0.00  0.00    +0.085 C 
ATOM      3  S   UNL     1      -7.244  16.598  68.499  0.00  0.00    -0.114 S 
ATOM      4  C   UNL     1      -8.294  18.139  68.099  0.00  0.00    +0.157 C 
ATOM      5  N   UNL     1      -7.113  18.798  67.405  0.00  0.00    -0.242 N 
ATOM      6  C   UNL     1      -7.192  17.958  66.226  0.00  0.00    +0.253 C 
ATOM      7  O   UNL     1      -6.796  18.293  65.065  0.00  0.00    -0.273 OA
ATOM      8  CA  UNL     1      -8.779  17.891  66.507  0.00  0.00    +0.201 C 
ATOM      9  CA  UNL     1      -6.151  19.307  68.328  0.00  0.00    +0.130 C 
ENDROOT
BRANCH   9  10
ATOM     10  C   UNL     1      -5.573  20.593  67.912  0.00  0.00    +0.401 C 
ATOM     11  OXT UNL     1      -6.534  21.555  67.575  0.00  0.00    -0.239 OA
ATOM     12  O   UNL     1      -4.492  20.673  67.279  0.00  0.00    -0.239 OA
ENDBRANCH   9  10
BRANCH   8  13
ATOM     13  N   UNL     1      -8.877  16.312  66.593  0.00  0.00    -0.190 NA
ATOM     14  C   UNL     1     -10.124  15.920  66.064  0.00  0.00    +0.288 C 
ATOM     15  O   UNL     1     -10.630  16.521  65.067  0.00  0.00    -0.267 OA
BRANCH  14  16
ATOM     16  C   UNL     1     -10.966  14.836  66.588  0.00  0.00    +0.192 C 
ATOM     17  N   UNL     1     -11.613  15.177  67.669  0.00  0.00    -0.077 NA
BRANCH  16  18
ATOM     18  C   UNL     1     -10.488  13.442  66.519  0.00  0.00    +0.115 A 
ATOM     19  N   UNL     1     -10.090  12.864  65.388  0.00  0.00    -0.220 NA
ATOM     20  C   UNL     1     -10.228  11.523  65.408  0.00  0.00    +0.201 A 
ATOM     21  N   UNL     1     -10.305  10.616  64.300  0.00  0.00    -0.100 NA
ATOM     22  S   UNL     1      -9.791  11.191  67.035  0.00  0.00    -0.048 S 
ATOM     23  C   UNL     1      -9.969  12.788  67.635  0.00  0.00    +0.059 A 
ENDBRANCH  16  18
BRANCH  17  24
ATOM     24  O   UNL     1     -11.299  16.326  68.378  0.00  0.00    -0.373 OA
ATOM     25  C   UNL     1     -11.047  16.315  69.767  0.00  0.00    +0.288 C 
ENDBRANCH  17  24
ENDBRANCH  14  16
ENDBRANCH   8  13
BRANCH   1  26
ATOM     26  C   UNL     1      -4.585  19.229  70.183  0.00  0.00    +0.167 C 
BRANCH  26  28
ATOM     27  C   UNL     1      -4.351  20.906  71.764  0.00  0.00    +0.175 C 
ATOM     28  O   UNL     1      -5.053  19.765  71.396  0.00  0.00    -0.347 OA
ENDBRANCH  26  28
ENDBRANCH   1  26
TORSDOF 7
ENDMDL
MODEL 7
REMARK VINA RESULT:      -5.8      3.431      5.153
REMARK  Name = 
REMARK  7 active torsions:
REMARK  status: ('A' for Active; 'I' for Inactive)
REMARK    1  A    between atoms: O_2  and  C_3
REMARK    2  A    between atoms: C_3  and  C_4
REMARK    3  A    between atoms: CA_5  and  C_6
REMARK    4  A    between atoms: CA_12  and  N_13
REMARK    5  A    between atoms: C_14  and  C_16
REMARK    6  A    between atoms: C_16  and  C_20
REMARK    7  A    between atoms: N_17  and  O_18
REMARK                            x       y       z     vdW  Elec       q    Type
REMARK                         _______ _______ _______ _____ _____    ______ ____
ROOT
ATOM      1  C   UNL     1      -7.685  19.452  67.012  0.00  0.00    +0.016 C 
ATOM      2  C   UNL     1      -8.608  19.252  68.175  0.00  0.00    +0.085 C 
ATOM      3  S   UNL     1      -9.232  17.549  68.256  0.00  0.00    -0.114 S 
ATOM      4  C   UNL     1      -9.128  17.006  66.431  0.00  0.00    +0.157 C 
ATOM      5  N   UNL     1      -7.609  17.069  66.470  0.00  0.00    -0.242 N 
ATOM      6  C   UNL     1      -7.467  15.852  67.245  0.00  0.00    +0.253 C 
ATOM      7  O   UNL     1      -6.451  15.088  67.221  0.00  0.00    -0.273 OA
ATOM      8  CA  UNL     1      -8.820  15.354  66.521  0.00  0.00    +0.201 C 
ATOM      9  CA  UNL     1      -7.115  18.406  66.426  0.00  0.00    +0.130 C 
ENDROOT
BRANCH   9  10
ATOM     10  C   UNL     1      -5.902  18.550  65.609  0.00  0.00    +0.401 C 
ATOM     11  OXT UNL     1      -6.167  18.777  64.252  0.00  0.00    -0.239 OA
ATOM     12  O   UNL     1      -4.849  17.913  65.849  0.00  0.00    -0.239 OA
ENDBRANCH   9  10
BRANCH   8  13
ATOM     13  N   UNL     1      -9.644  15.090  67.849  0.00  0.00    -0.190 NA
ATOM     14  C   UNL     1     -10.048  13.739  67.852  0.00  0.00    +0.288 C 
ATOM     15  O   UNL     1      -9.291  12.827  67.399  0.00  0.00    -0.267 OA
BRANCH  14  16
ATOM     16  C   UNL     1     -11.344  13.242  68.334  0.00  0.00    +0.192 C 
ATOM     17  N   UNL     1     -12.144  12.893  67.364  0.00  0.00    -0.077 NA
BRANCH  16  18
ATOM     18  C   UNL     1     -11.973  13.868  69.513  0.00  0.00    +0.115 A 
ATOM     19  N   UNL     1     -12.113  13.243  70.680  0.00  0.00    -0.220 NA
ATOM     20  C   UNL     1     -13.145  13.716  71.407  0.00  0.00    +0.201 A 
ATOM     21  N   UNL     1     -13.855  13.074  72.475  0.00  0.00    -0.100 NA
ATOM     22  S   UNL     1     -13.029  15.393  71.055  0.00  0.00    -0.048 S 
ATOM     23  C   UNL     1     -12.033  15.251  69.666  0.00  0.00    +0.059 A 
ENDBRANCH  16  18
BRANCH  17  24
ATOM     24  O   UNL     1     -11.888  13.237  66.045  0.00  0.00    -0.373 OA
ATOM     25  C   UNL     1     -12.635  12.717  64.966  0.00  0.00    +0.288 C 
ENDBRANCH  17  24
ENDBRANCH  14  16
ENDBRANCH   8  13
BRANCH   1  26
ATOM     26  C   UNL     1      -6.893  20.723  67.124  0.00  0.00    +0.167 C 
BRANCH  26  28
ATOM     27  C   UNL     1      -4.971  20.874  68.407  0.00  0.00    +0.175 C 
ATOM     28  O   UNL     1      -6.349  20.699  68.420  0.00  0.00    -0.347 OA
ENDBRANCH  26  28
ENDBRANCH   1  26
TORSDOF 7
ENDMDL
MODEL 8
REMARK VINA RESULT:      -5.7      3.357      7.734
REMARK  Name = 
REMARK  7 active torsions:
REMARK  status: ('A' for Active; 'I' for Inactive)
REMARK    1  A    between atoms: O_2  and  C_3
REMARK    2  A    between atoms: C_3  and  C_4
REMARK    3  A    between atoms: CA_5  and  C_6
REMARK    4  A    between atoms: CA_12  and  N_13
REMARK    5  A    between atoms: C_14  and  C_16
REMARK    6  A    between atoms: C_16  and  C_20
REMARK    7  A    between atoms: N_17  and  O_18
REMARK                            x       y       z     vdW  Elec       q    Type
REMARK                         _______ _______ _______ _____ _____    ______ ____
ROOT
ATOM      1  C   UNL     1     -10.798  10.177  69.723  0.00  0.00    +0.016 C 
ATOM      2  C   UNL     1      -9.556  10.672  69.046  0.00  0.00    +0.085 C 
ATOM      3  S   UNL     1      -9.756  12.365  68.421  0.00  0.00    -0.114 S 
ATOM      4  C   UNL     1     -11.642  12.463  68.152  0.00  0.00    +0.157 C 
ATOM      5  N   UNL     1     -11.888  12.365  69.649  0.00  0.00    -0.242 N 
ATOM      6  C   UNL     1     -11.465  13.724  69.922  0.00  0.00    +0.253 C 
ATOM      7  O   UNL     1     -11.867  14.431  70.899  0.00  0.00    -0.273 OA
ATOM      8  CA  UNL     1     -12.006  14.080  68.444  0.00  0.00    +0.201 C 
ATOM      9  CA  UNL     1     -11.713  11.040  70.147  0.00  0.00    +0.130 C 
ENDROOT
BRANCH   9  10
ATOM     10  C   UNL     1     -12.696  10.672  71.177  0.00  0.00    +0.401 C 
ATOM     11  OXT UNL     1     -13.659   9.758  70.728  0.00  0.00    -0.239 OA
ATOM     12  O   UNL     1     -13.093  11.481  72.049  0.00  0.00    -0.239 OA
ENDBRANCH   9  10
BRANCH   8  13
ATOM     13  N   UNL     1     -10.642  14.672  67.895  0.00  0.00    -0.190 NA
ATOM     14  C   UNL     1     -10.825  16.051  67.664  0.00  0.00    +0.288 C 
ATOM     15  O   UNL     1     -11.541  16.756  68.439  0.00  0.00    -0.267 OA
BRANCH  14  16
ATOM     16  C   UNL     1     -10.256  16.806  66.539  0.00  0.00    +0.192 C 
ATOM     17  N   UNL     1     -10.494  16.246  65.384  0.00  0.00    -0.077 NA
BRANCH  16  18
ATOM     18  C   UNL     1      -8.948  17.471  66.692  0.00  0.00    +0.115 A 
ATOM     19  N   UNL     1      -7.913  17.232  65.890  0.00  0.00    -0.220 NA
ATOM     20  C   UNL     1      -6.726  17.471  66.482  0.00  0.00    +0.201 A 
ATOM     21  N   UNL     1      -5.431  16.968  66.124  0.00  0.00    -0.100 NA
ATOM     22  S   UNL     1      -7.114  18.866  67.405  0.00  0.00    -0.048 S 
ATOM     23  C   UNL     1      -8.820  18.699  67.338  0.00  0.00    +0.059 A 
ENDBRANCH  16  18
BRANCH  17  24
ATOM     24  O   UNL     1     -10.969  14.947  65.284  0.00  0.00    -0.373 OA
ATOM     25  C   UNL     1     -12.107  14.612  64.521  0.00  0.00    +0.288 C 
ENDBRANCH  17  24
ENDBRANCH  14  16
ENDBRANCH   8  13
BRANCH   1  26
ATOM     26  C   UNL     1     -10.548   8.945  70.544  0.00  0.00    +0.167 C 
BRANCH  26  28
ATOM     27  C   UNL     1     -11.573   6.874  70.391  0.00  0.00    +0.175 C 
ATOM     28  O   UNL     1     -10.895   7.872  69.704  0.00  0.00    -0.347 OA
ENDBRANCH  26  28
ENDBRANCH   1  26
TORSDOF 7
ENDMDL
MODEL 9
REMARK VINA RESULT:      -5.7      3.111      7.913
REMARK  Name = 
REMARK  7 active torsions:
REMARK  status: ('A' for Active; 'I' for Inactive)
REMARK    1  A    between atoms: O_2  and  C_3
REMARK    2  A    between atoms: C_3  and  C_4
REMARK    3  A    between atoms: CA_5  and  C_6
REMARK    4  A    between atoms: CA_12  and  N_13
REMARK    5  A    between atoms: C_14  and  C_16
REMARK    6  A    between atoms: C_16  and  C_20
REMARK    7  A    between atoms: N_17  and  O_18
REMARK                            x       y       z     vdW  Elec       q    Type
REMARK                         _______ _______ _______ _____ _____    ______ ____
ROOT
ATOM      1  C   UNL     1      -9.285  13.130  66.675  0.00  0.00    +0.016 C 
ATOM      2  C   UNL     1      -8.080  13.518  67.476  0.00  0.00    +0.085 C 
ATOM      3  S   UNL     1      -8.120  15.269  67.952  0.00  0.00    -0.114 S 
ATOM      4  C   UNL     1      -9.198  16.025  66.573  0.00  0.00    +0.157 C 
ATOM      5  N   UNL     1     -10.416  15.262  67.068  0.00  0.00    -0.242 N 
ATOM      6  C   UNL     1     -10.617  16.111  68.226  0.00  0.00    +0.253 C 
ATOM      7  O   UNL     1     -11.735  16.309  68.798  0.00  0.00    -0.273 OA
ATOM      8  CA  UNL     1      -9.989  17.300  67.335  0.00  0.00    +0.201 C 
ATOM      9  CA  UNL     1     -10.379  13.881  66.712  0.00  0.00    +0.130 C 
ENDROOT
BRANCH   9  10
ATOM     10  C   UNL     1     -11.692  13.345  66.328  0.00  0.00    +0.401 C 
ATOM     11  OXT UNL     1     -12.358  14.128  65.375  0.00  0.00    -0.239 OA
ATOM     12  O   UNL     1     -12.436  12.741  67.137  0.00  0.00    -0.239 OA
ENDBRANCH   9  10
BRANCH   8  13
ATOM     13  N   UNL     1      -8.815  17.667  68.334  0.00  0.00    -0.190 NA
ATOM     14  C   UNL     1      -8.656  19.069  68.326  0.00  0.00    +0.288 C 
ATOM     15  O   UNL     1      -9.658  19.841  68.235  0.00  0.00    -0.267 OA
BRANCH  14  16
ATOM     16  C   UNL     1      -7.371  19.778  68.397  0.00  0.00    +0.192 C 
ATOM     17  N   UNL     1      -6.856  20.007  67.220  0.00  0.00    -0.077 NA
BRANCH  16  18
ATOM     18  C   UNL     1      -6.421  19.462  69.482  0.00  0.00    +0.115 A 
ATOM     19  N   UNL     1      -5.693  18.349  69.509  0.00  0.00    -0.220 NA
ATOM     20  C   UNL     1      -5.343  17.984  70.759  0.00  0.00    +0.201 A 
ATOM     21  N   UNL     1      -4.938  16.691  71.232  0.00  0.00    -0.100 NA
ATOM     22  S   UNL     1      -5.042  19.522  71.459  0.00  0.00    -0.048 S 
ATOM     23  C   UNL     1      -5.860  20.458  70.278  0.00  0.00    +0.059 A 
ENDBRANCH  16  18
BRANCH  17  24
ATOM     24  O   UNL     1      -7.337  19.387  66.077  0.00  0.00    -0.373 OA
ATOM     25  C   UNL     1      -6.569  18.466  65.333  0.00  0.00    +0.288 C 
ENDBRANCH  17  24
ENDBRANCH  14  16
ENDBRANCH   8  13
BRANCH   1  26
ATOM     26  C   UNL     1      -9.450  11.640  66.576  0.00  0.00    +0.167 C 
BRANCH  26  28
ATOM     27  C   UNL     1      -9.837  10.377  64.673  0.00  0.00    +0.175 C 
ATOM     28  O   UNL     1      -9.008  11.311  65.282  0.00  0.00    -0.347 OA
ENDBRANCH  26  28
ENDBRANCH   1  26
TORSDOF 7
ENDMDL
