MODEL 1
REMARK VINA RESULT:      -5.9      0.000      0.000
REMARK  Name = 
REMARK  7 active torsions:
REMARK  status: ('A' for Active; 'I' for Inactive)
REMARK    1  A    between atoms: O_2  and  C_3
REMARK    2  A    between atoms: C_6  and  C_7
REMARK    3  A    between atoms: C_7  and  N_8
REMARK    4  A    between atoms: N_8  and  C_9
REMARK    5  A    between atoms: N_8  and  C_14
REMARK    6  A    between atoms: C_9  and  C_10
REMARK    7  A    between atoms: C_10  and  N_11
REMARK                            x       y       z     vdW  Elec       q    Type
REMARK                         _______ _______ _______ _____ _____    ______ ____
ROOT
ATOM      1  N   UNL     1      -9.803  15.913  66.486  0.00  0.00    -0.288 N 
ENDROOT
BRANCH   1   2
ATOM      2  C   UNL     1      -9.552  17.324  66.489  0.00  0.00    +0.132 A 
ATOM      3  N   UNL     1     -10.376  18.156  65.818  0.00  0.00    -0.229 NA
ATOM      4  C   UNL     1     -10.491  19.469  66.113  0.00  0.00    +0.100 A 
ATOM      5  C   UNL     1     -10.201  19.835  67.415  0.00  0.00    +0.021 A 
ATOM      6  C   UNL     1      -9.245  19.119  68.093  0.00  0.00    +0.004 A 
ATOM      7  C   UNL     1      -8.903  17.871  67.588  0.00  0.00    +0.034 A 
ENDBRANCH   1   2
BRANCH   1   8
ATOM      8  C   UNL     1      -9.693  15.193  67.731  0.00  0.00    +0.119 C 
BRANCH   8  12
ATOM      9  C   UNL     1     -12.531  14.379  70.676  0.00  0.00    +0.139 A 
ATOM     10  C   UNL     1     -12.311  15.673  70.289  0.00  0.00    +0.037 A 
ATOM     11  C   UNL     1     -11.667  15.920  69.109  0.00  0.00    +0.000 A 
ATOM     12  C   UNL     1     -11.017  14.943  68.368  0.00  0.00    -0.002 A 
ATOM     13  C   UNL     1     -11.308  13.636  68.740  0.00  0.00    +0.000 A 
ATOM     14  C   UNL     1     -12.013  13.357  69.903  0.00  0.00    +0.037 A 
BRANCH   9  16
ATOM     15  C   UNL     1     -13.056  14.690  73.065  0.00  0.00    +0.252 C 
ATOM     16  O   UNL     1     -13.240  14.034  71.830  0.00  0.00    -0.471 OA
ENDBRANCH   9  16
ENDBRANCH   8  12
ENDBRANCH   1   8
BRANCH   1  17
ATOM     17  C   UNL     1     -10.799  15.412  65.541  0.00  0.00    +0.110 C 
BRANCH  17  18
ATOM     18  C   UNL     1     -10.377  14.109  64.918  0.00  0.00    +0.094 C 
BRANCH  18  19
ATOM     19  N   UNL     1     -11.463  13.140  64.864  0.00  0.00    -0.269 NA
ATOM     20  C   UNL     1     -12.719  13.694  65.315  0.00  0.00    +0.090 C 
ATOM     21  C   UNL     1     -11.575  12.544  63.541  0.00  0.00    +0.090 C 
ENDBRANCH  18  19
ENDBRANCH  17  18
ENDBRANCH   1  17
TORSDOF 7
ENDMDL
MODEL 2
REMARK VINA RESULT:      -5.8      1.225      4.513
REMARK  Name = 
REMARK  7 active torsions:
REMARK  status: ('A' for Active; 'I' for Inactive)
REMARK    1  A    between atoms: O_2  and  C_3
REMARK    2  A    between atoms: C_6  and  C_7
REMARK    3  A    between atoms: C_7  and  N_8
REMARK    4  A    between atoms: N_8  and  C_9
REMARK    5  A    between atoms: N_8  and  C_14
REMARK    6  A    between atoms: C_9  and  C_10
REMARK    7  A    between atoms: C_10  and  N_11
REMARK                            x       y       z     vdW  Elec       q    Type
REMARK                         _______ _______ _______ _____ _____    ______ ____
ROOT
ATOM      1  N   UNL     1     -11.197  14.575  66.353  0.00  0.00    -0.288 N 
ENDROOT
BRANCH   1   2
ATOM      2  C   UNL     1     -11.642  13.402  65.662  0.00  0.00    +0.132 A 
ATOM      3  N   UNL     1     -12.274  13.519  64.475  0.00  0.00    -0.229 NA
ATOM      4  C   UNL     1     -12.327  12.517  63.571  0.00  0.00    +0.100 A 
ATOM      5  C   UNL     1     -11.296  11.595  63.613  0.00  0.00    +0.021 A 
ATOM      6  C   UNL     1     -10.724  11.315  64.829  0.00  0.00    +0.004 A 
ATOM      7  C   UNL     1     -10.942  12.219  65.861  0.00  0.00    +0.034 A 
ENDBRANCH   1   2
BRANCH   1   8
ATOM      8  C   UNL     1     -10.683  14.429  67.693  0.00  0.00    +0.119 C 
BRANCH   8  12
ATOM      9  C   UNL     1     -12.507  14.520  71.442  0.00  0.00    +0.139 A 
ATOM     10  C   UNL     1     -12.296  15.689  70.765  0.00  0.00    +0.037 A 
ATOM     11  C   UNL     1     -12.038  15.652  69.424  0.00  0.00    +0.000 A 
ATOM     12  C   UNL     1     -11.755  14.485  68.727  0.00  0.00    -0.002 A 
ATOM     13  C   UNL     1     -12.039  13.310  69.413  0.00  0.00    +0.000 A 
ATOM     14  C   UNL     1     -12.363  13.324  70.764  0.00  0.00    +0.037 A 
BRANCH   9  16
ATOM     15  C   UNL     1     -12.407  15.430  73.732  0.00  0.00    +0.252 C 
ATOM     16  O   UNL     1     -12.844  14.467  72.797  0.00  0.00    -0.471 OA
ENDBRANCH   9  16
ENDBRANCH   8  12
ENDBRANCH   1   8
BRANCH   1  17
ATOM     17  C   UNL     1     -10.602  15.640  65.550  0.00  0.00    +0.110 C 
BRANCH  17  18
ATOM     18  C   UNL     1      -9.271  16.080  66.096  0.00  0.00    +0.094 C 
BRANCH  18  19
ATOM     19  N   UNL     1      -9.026  17.501  65.889  0.00  0.00    -0.269 NA
ATOM     20  C   UNL     1     -10.055  18.328  66.476  0.00  0.00    +0.090 C 
ATOM     21  C   UNL     1      -7.697  17.880  66.344  0.00  0.00    +0.090 C 
ENDBRANCH  18  19
ENDBRANCH  17  18
ENDBRANCH   1  17
TORSDOF 7
ENDMDL
MODEL 3
REMARK VINA RESULT:      -5.8      0.919      1.445
REMARK  Name = 
REMARK  7 active torsions:
REMARK  status: ('A' for Active; 'I' for Inactive)
REMARK    1  A    between atoms: O_2  and  C_3
REMARK    2  A    between atoms: C_6  and  C_7
REMARK    3  A    between atoms: C_7  and  N_8
REMARK    4  A    between atoms: N_8  and  C_9
REMARK    5  A    between atoms: N_8  and  C_14
REMARK    6  A    between atoms: C_9  and  C_10
REMARK    7  A    between atoms: C_10  and  N_11
REMARK                            x       y       z     vdW  Elec       q    Type
REMARK                         _______ _______ _______ _____ _____    ______ ____
ROOT
ATOM      1  N   UNL     1      -9.989  16.000  67.062  0.00  0.00    -0.288 N 
ENDROOT
BRANCH   1   2
ATOM      2  C   UNL     1      -9.649  17.374  66.840  0.00  0.00    +0.132 A 
ATOM      3  N   UNL     1     -10.367  18.114  65.970  0.00  0.00    -0.229 NA
ATOM      4  C   UNL     1     -10.418  19.463  66.022  0.00  0.00    +0.100 A 
ATOM      5  C   UNL     1     -10.198  20.040  67.260  0.00  0.00    +0.021 A 
ATOM      6  C   UNL     1      -9.341  19.409  68.128  0.00  0.00    +0.004 A 
ATOM      7  C   UNL     1      -9.045  18.075  67.877  0.00  0.00    +0.034 A 
ENDBRANCH   1   2
BRANCH   1   8
ATOM      8  C   UNL     1     -11.263  15.697  67.666  0.00  0.00    +0.119 C 
BRANCH   8  12
ATOM      9  C   UNL     1     -12.289  14.691  71.582  0.00  0.00    +0.139 A 
ATOM     10  C   UNL     1     -12.268  13.720  70.618  0.00  0.00    +0.037 A 
ATOM     11  C   UNL     1     -11.605  13.952  69.446  0.00  0.00    +0.000 A 
ATOM     12  C   UNL     1     -11.128  15.198  69.065  0.00  0.00    -0.002 A 
ATOM     13  C   UNL     1     -11.100  16.149  70.079  0.00  0.00    +0.000 A 
ATOM     14  C   UNL     1     -11.714  15.917  71.303  0.00  0.00    +0.037 A 
BRANCH   9  16
ATOM     15  C   UNL     1     -12.526  15.283  73.964  0.00  0.00    +0.252 C 
ATOM     16  O   UNL     1     -12.883  14.516  72.835  0.00  0.00    -0.471 OA
ENDBRANCH   9  16
ENDBRANCH   8  12
ENDBRANCH   1   8
BRANCH   1  17
ATOM     17  C   UNL     1      -9.486  15.023  66.099  0.00  0.00    +0.110 C 
BRANCH  17  18
ATOM     18  C   UNL     1     -10.492  14.727  65.020  0.00  0.00    +0.094 C 
BRANCH  18  19
ATOM     19  N   UNL     1     -10.556  13.310  64.691  0.00  0.00    -0.269 NA
ATOM     20  C   UNL     1     -10.355  12.467  65.847  0.00  0.00    +0.090 C 
ATOM     21  C   UNL     1     -11.788  12.986  63.988  0.00  0.00    +0.090 C 
ENDBRANCH  18  19
ENDBRANCH  17  18
ENDBRANCH   1  17
TORSDOF 7
ENDMDL
MODEL 4
REMARK VINA RESULT:      -5.8      2.660      5.359
REMARK  Name = 
REMARK  7 active torsions:
REMARK  status: ('A' for Active; 'I' for Inactive)
REMARK    1  A    between atoms: O_2  and  C_3
REMARK    2  A    between atoms: C_6  and  C_7
REMARK    3  A    between atoms: C_7  and  N_8
REMARK    4  A    between atoms: N_8  and  C_9
REMARK    5  A    between atoms: N_8  and  C_14
REMARK    6  A    between atoms: C_9  and  C_10
REMARK    7  A    between atoms: C_10  and  N_11
REMARK                            x       y       z     vdW  Elec       q    Type
REMARK                         _______ _______ _______ _____ _____    ______ ____
ROOT
ATOM      1  N   UNL     1     -10.991  16.098  68.644  0.00  0.00    -0.288 N 
ENDROOT
BRANCH   1   2
ATOM      2  C   UNL     1     -10.303  17.193  68.026  0.00  0.00    +0.132 A 
ATOM      3  N   UNL     1     -10.980  18.310  67.688  0.00  0.00    -0.229 NA
ATOM      4  C   UNL     1     -10.380  19.509  67.528  0.00  0.00    +0.100 A 
ATOM      5  C   UNL     1      -9.206  19.710  68.232  0.00  0.00    +0.021 A 
ATOM      6  C   UNL     1      -8.394  18.627  68.462  0.00  0.00    +0.004 A 
ATOM      7  C   UNL     1      -8.955  17.365  68.315  0.00  0.00    +0.034 A 
ENDBRANCH   1   2
BRANCH   1   8
ATOM      8  C   UNL     1     -10.709  14.761  68.183  0.00  0.00    +0.119 C 
BRANCH   8  12
ATOM      9  C   UNL     1     -11.338  12.838  64.536  0.00  0.00    +0.139 A 
ATOM     10  C   UNL     1     -12.390  13.030  65.389  0.00  0.00    +0.037 A 
ATOM     11  C   UNL     1     -12.280  13.948  66.395  0.00  0.00    +0.000 A 
ATOM     12  C   UNL     1     -11.086  14.556  66.755  0.00  0.00    -0.002 A 
ATOM     13  C   UNL     1     -10.051  14.400  65.841  0.00  0.00    +0.000 A 
ATOM     14  C   UNL     1     -10.158  13.517  64.774  0.00  0.00    +0.037 A 
BRANCH   9  16
ATOM     15  C   UNL     1     -10.331  11.094  63.113  0.00  0.00    +0.252 C 
ATOM     16  O   UNL     1     -11.386  11.972  63.441  0.00  0.00    -0.471 OA
ENDBRANCH   9  16
ENDBRANCH   8  12
ENDBRANCH   1   8
BRANCH   1  17
ATOM     17  C   UNL     1     -11.327  16.232  70.059  0.00  0.00    +0.110 C 
BRANCH  17  18
ATOM     18  C   UNL     1     -12.462  15.329  70.456  0.00  0.00    +0.094 C 
BRANCH  18  19
ATOM     19  N   UNL     1     -13.225  15.853  71.581  0.00  0.00    -0.269 NA
ATOM     20  C   UNL     1     -14.421  15.087  71.841  0.00  0.00    +0.090 C 
ATOM     21  C   UNL     1     -12.393  15.985  72.768  0.00  0.00    +0.090 C 
ENDBRANCH  18  19
ENDBRANCH  17  18
ENDBRANCH   1  17
TORSDOF 7
ENDMDL
MODEL 5
REMARK VINA RESULT:      -5.7      1.758      4.812
REMARK  Name = 
REMARK  7 active torsions:
REMARK  status: ('A' for Active; 'I' for Inactive)
REMARK    1  A    between atoms: O_2  and  C_3
REMARK    2  A    between atoms: C_6  and  C_7
REMARK    3  A    between atoms: C_7  and  N_8
REMARK    4  A    between atoms: N_8  and  C_9
REMARK    5  A    between atoms: N_8  and  C_14
REMARK    6  A    between atoms: C_9  and  C_10
REMARK    7  A    between atoms: C_10  and  N_11
REMARK                            x       y       z     vdW  Elec       q    Type
REMARK                         _______ _______ _______ _____ _____    ______ ____
ROOT
ATOM      1  N   UNL     1     -10.805  14.954  67.039  0.00  0.00    -0.288 N 
ENDROOT
BRANCH   1   2
ATOM      2  C   UNL     1     -11.132  14.368  65.773  0.00  0.00    +0.132 A 
ATOM      3  N   UNL     1     -10.190  13.693  65.080  0.00  0.00    -0.229 NA
ATOM      4  C   UNL     1     -10.492  12.764  64.147  0.00  0.00    +0.100 A 
ATOM      5  C   UNL     1     -11.708  12.119  64.291  0.00  0.00    +0.021 A 
ATOM      6  C   UNL     1     -12.753  12.819  64.843  0.00  0.00    +0.004 A 
ATOM      7  C   UNL     1     -12.445  13.972  65.554  0.00  0.00    +0.034 A 
ENDBRANCH   1   2
BRANCH   1   8
ATOM      8  C   UNL     1     -10.369  14.088  68.106  0.00  0.00    +0.119 C 
BRANCH   8  12
ATOM      9  C   UNL     1     -12.438  11.633  70.768  0.00  0.00    +0.139 A 
ATOM     10  C   UNL     1     -12.470  12.990  70.936  0.00  0.00    +0.037 A 
ATOM     11  C   UNL     1     -12.110  13.804  69.898  0.00  0.00    +0.000 A 
ATOM     12  C   UNL     1     -11.497  13.348  68.740  0.00  0.00    -0.002 A 
ATOM     13  C   UNL     1     -11.534  11.970  68.561  0.00  0.00    +0.000 A 
ATOM     14  C   UNL     1     -11.953  11.122  69.579  0.00  0.00    +0.037 A 
BRANCH   9  16
ATOM     15  C   UNL     1     -12.521   9.358  71.715  0.00  0.00    +0.252 C 
ATOM     16  O   UNL     1     -12.853  10.728  71.749  0.00  0.00    -0.471 OA
ENDBRANCH   9  16
ENDBRANCH   8  12
ENDBRANCH   1   8
BRANCH   1  17
ATOM     17  C   UNL     1     -10.227  16.296  67.025  0.00  0.00    +0.110 C 
BRANCH  17  18
ATOM     18  C   UNL     1     -10.776  17.156  68.131  0.00  0.00    +0.094 C 
BRANCH  18  19
ATOM     19  N   UNL     1     -10.661  18.579  67.840  0.00  0.00    -0.269 NA
ATOM     20  C   UNL     1      -9.655  19.227  68.649  0.00  0.00    +0.090 C 
ATOM     21  C   UNL     1     -10.452  18.813  66.419  0.00  0.00    +0.090 C 
ENDBRANCH  18  19
ENDBRANCH  17  18
ENDBRANCH   1  17
TORSDOF 7
ENDMDL
MODEL 6
REMARK VINA RESULT:      -5.5      3.485      5.502
REMARK  Name = 
REMARK  7 active torsions:
REMARK  status: ('A' for Active; 'I' for Inactive)
REMARK    1  A    between atoms: O_2  and  C_3
REMARK    2  A    between atoms: C_6  and  C_7
REMARK    3  A    between atoms: C_7  and  N_8
REMARK    4  A    between atoms: N_8  and  C_9
REMARK    5  A    between atoms: N_8  and  C_14
REMARK    6  A    between atoms: C_9  and  C_10
REMARK    7  A    between atoms: C_10  and  N_11
REMARK                            x       y       z     vdW  Elec       q    Type
REMARK                         _______ _______ _______ _____ _____    ______ ____
ROOT
ATOM      1  N   UNL     1     -11.671  13.713  69.918  0.00  0.00    -0.288 N 
ENDROOT
BRANCH   1   2
ATOM      2  C   UNL     1     -12.336  14.744  70.658  0.00  0.00    +0.132 A 
ATOM      3  N   UNL     1     -13.641  14.609  70.977  0.00  0.00    -0.229 NA
ATOM      4  C   UNL     1     -14.215  15.269  72.006  0.00  0.00    +0.100 A 
ATOM      5  C   UNL     1     -13.380  15.638  73.045  0.00  0.00    +0.021 A 
ATOM      6  C   UNL     1     -12.075  15.948  72.750  0.00  0.00    +0.004 A 
ATOM      7  C   UNL     1     -11.578  15.522  71.524  0.00  0.00    +0.034 A 
ENDBRANCH   1   2
BRANCH   1   8
ATOM      8  C   UNL     1     -12.386  12.491  69.647  0.00  0.00    +0.119 C 
BRANCH   8  12
ATOM      9  C   UNL     1     -12.374   8.742  71.475  0.00  0.00    +0.139 A 
ATOM     10  C   UNL     1     -11.389   9.061  70.581  0.00  0.00    +0.037 A 
ATOM     11  C   UNL     1     -11.177  10.371  70.255  0.00  0.00    +0.000 A 
ATOM     12  C   UNL     1     -12.040  11.400  70.603  0.00  0.00    -0.002 A 
ATOM     13  C   UNL     1     -12.991  11.068  71.560  0.00  0.00    +0.000 A 
ATOM     14  C   UNL     1     -13.188   9.751  71.955  0.00  0.00    +0.037 A 
BRANCH   9  16
ATOM     15  C   UNL     1     -11.773   6.354  71.600  0.00  0.00    +0.252 C 
ATOM     16  O   UNL     1     -12.617   7.439  71.917  0.00  0.00    -0.471 OA
ENDBRANCH   9  16
ENDBRANCH   8  12
ENDBRANCH   1   8
BRANCH   1  17
ATOM     17  C   UNL     1     -10.710  14.134  68.901  0.00  0.00    +0.110 C 
BRANCH  17  18
ATOM     18  C   UNL     1     -11.047  13.578  67.544  0.00  0.00    +0.094 C 
BRANCH  18  19
ATOM     19  N   UNL     1     -11.672  14.566  66.676  0.00  0.00    -0.269 NA
ATOM     20  C   UNL     1     -10.711  15.474  66.094  0.00  0.00    +0.090 C 
ATOM     21  C   UNL     1     -12.504  13.931  65.665  0.00  0.00    +0.090 C 
ENDBRANCH  18  19
ENDBRANCH  17  18
ENDBRANCH   1  17
TORSDOF 7
ENDMDL
MODEL 7
REMARK VINA RESULT:      -5.5      2.672      6.062
REMARK  Name = 
REMARK  7 active torsions:
REMARK  status: ('A' for Active; 'I' for Inactive)
REMARK    1  A    between atoms: O_2  and  C_3
REMARK    2  A    between atoms: C_6  and  C_7
REMARK    3  A    between atoms: C_7  and  N_8
REMARK    4  A    between atoms: N_8  and  C_9
REMARK    5  A    between atoms: N_8  and  C_14
REMARK    6  A    between atoms: C_9  and  C_10
REMARK    7  A    between atoms: C_10  and  N_11
REMARK                            x       y       z     vdW  Elec       q    Type
REMARK                         _______ _______ _______ _____ _____    ______ ____
ROOT
ATOM      1  N   UNL     1     -10.990  15.471  69.203  0.00  0.00    -0.288 N 
ENDROOT
BRANCH   1   2
ATOM      2  C   UNL     1     -11.516  15.162  70.500  0.00  0.00    +0.132 A 
ATOM      3  N   UNL     1     -11.585  16.122  71.445  0.00  0.00    -0.229 NA
ATOM      4  C   UNL     1     -12.436  16.059  72.493  0.00  0.00    +0.100 A 
ATOM      5  C   UNL     1     -13.588  15.317  72.306  0.00  0.00    +0.021 A 
ATOM      6  C   UNL     1     -13.530  14.223  71.477  0.00  0.00    +0.004 A 
ATOM      7  C   UNL     1     -12.455  14.144  70.600  0.00  0.00    +0.034 A 
ENDBRANCH   1   2
BRANCH   1   8
ATOM      8  C   UNL     1     -11.719  15.024  68.042  0.00  0.00    +0.119 C 
BRANCH   8  12
ATOM      9  C   UNL     1     -10.896  12.170  65.115  0.00  0.00    +0.139 A 
ATOM     10  C   UNL     1     -10.414  13.442  64.972  0.00  0.00    +0.037 A 
ATOM     11  C   UNL     1     -10.368  14.268  66.060  0.00  0.00    +0.000 A 
ATOM     12  C   UNL     1     -10.983  13.982  67.270  0.00  0.00    -0.002 A 
ATOM     13  C   UNL     1     -11.408  12.666  67.415  0.00  0.00    +0.000 A 
ATOM     14  C   UNL     1     -11.409  11.787  66.340  0.00  0.00    +0.037 A 
BRANCH   9  16
ATOM     15  C   UNL     1      -9.862  11.100  63.149  0.00  0.00    +0.252 C 
ATOM     16  O   UNL     1     -10.917  11.236  64.075  0.00  0.00    -0.471 OA
ENDBRANCH   9  16
ENDBRANCH   8  12
ENDBRANCH   1   8
BRANCH   1  17
ATOM     17  C   UNL     1     -10.263  16.730  69.059  0.00  0.00    +0.110 C 
BRANCH  17  18
ATOM     18  C   UNL     1     -10.624  17.446  67.786  0.00  0.00    +0.094 C 
BRANCH  18  19
ATOM     19  N   UNL     1     -10.590  18.894  67.933  0.00  0.00    -0.269 NA
ATOM     20  C   UNL     1      -9.505  19.337  68.779  0.00  0.00    +0.090 C 
ATOM     21  C   UNL     1     -10.576  19.557  66.638  0.00  0.00    +0.090 C 
ENDBRANCH  18  19
ENDBRANCH  17  18
ENDBRANCH   1  17
TORSDOF 7
ENDMDL
MODEL 8
REMARK VINA RESULT:      -5.5      2.842      5.634
REMARK  Name = 
REMARK  7 active torsions:
REMARK  status: ('A' for Active; 'I' for Inactive)
REMARK    1  A    between atoms: O_2  and  C_3
REMARK    2  A    between atoms: C_6  and  C_7
REMARK    3  A    between atoms: C_7  and  N_8
REMARK    4  A    between atoms: N_8  and  C_9
REMARK    5  A    between atoms: N_8  and  C_14
REMARK    6  A    between atoms: C_9  and  C_10
REMARK    7  A    between atoms: C_10  and  N_11
REMARK                            x       y       z     vdW  Elec       q    Type
REMARK                         _______ _______ _______ _____ _____    ______ ____
ROOT
ATOM      1  N   UNL     1     -11.596  15.117  69.430  0.00  0.00    -0.288 N 
ENDROOT
BRANCH   1   2
ATOM      2  C   UNL     1     -12.388  15.352  70.601  0.00  0.00    +0.132 A 
ATOM      3  N   UNL     1     -13.299  14.438  70.993  0.00  0.00    -0.229 NA
ATOM      4  C   UNL     1     -13.751  14.352  72.263  0.00  0.00    +0.100 A 
ATOM      5  C   UNL     1     -12.900  14.813  73.252  0.00  0.00    +0.021 A 
ATOM      6  C   UNL     1     -12.062  15.859  72.952  0.00  0.00    +0.004 A 
ATOM      7  C   UNL     1     -11.847  16.140  71.609  0.00  0.00    +0.034 A 
ENDBRANCH   1   2
BRANCH   1   8
ATOM      8  C   UNL     1     -10.166  15.285  69.521  0.00  0.00    +0.119 C 
BRANCH   8  12
ATOM      9  C   UNL     1      -8.867  18.199  66.835  0.00  0.00    +0.139 A 
ATOM     10  C   UNL     1     -10.189  18.138  67.179  0.00  0.00    +0.037 A 
ATOM     11  C   UNL     1     -10.562  17.446  68.297  0.00  0.00    +0.000 A 
ATOM     12  C   UNL     1      -9.711  16.606  69.001  0.00  0.00    -0.002 A 
ATOM     13  C   UNL     1      -8.365  16.732  68.678  0.00  0.00    +0.000 A 
ATOM     14  C   UNL     1      -7.953  17.479  67.582  0.00  0.00    +0.037 A 
BRANCH   9  16
ATOM     15  C   UNL     1      -7.195  19.688  65.803  0.00  0.00    +0.252 C 
ATOM     16  O   UNL     1      -8.388  18.938  65.750  0.00  0.00    -0.471 OA
ENDBRANCH   9  16
ENDBRANCH   8  12
ENDBRANCH   1   8
BRANCH   1  17
ATOM     17  C   UNL     1     -12.063  14.089  68.502  0.00  0.00    +0.110 C 
BRANCH  17  18
ATOM     18  C   UNL     1     -11.065  13.823  67.408  0.00  0.00    +0.094 C 
BRANCH  18  19
ATOM     19  N   UNL     1     -11.396  14.516  66.170  0.00  0.00    -0.269 NA
ATOM     20  C   UNL     1     -10.223  14.860  65.401  0.00  0.00    +0.090 C 
ATOM     21  C   UNL     1     -12.362  13.763  65.385  0.00  0.00    +0.090 C 
ENDBRANCH  18  19
ENDBRANCH  17  18
ENDBRANCH   1  17
TORSDOF 7
ENDMDL
MODEL 9
REMARK VINA RESULT:      -5.4      2.953      5.647
REMARK  Name = 
REMARK  7 active torsions:
REMARK  status: ('A' for Active; 'I' for Inactive)
REMARK    1  A    between atoms: O_2  and  C_3
REMARK    2  A    between atoms: C_6  and  C_7
REMARK    3  A    between atoms: C_7  and  N_8
REMARK    4  A    between atoms: N_8  and  C_9
REMARK    5  A    between atoms: N_8  and  C_14
REMARK    6  A    between atoms: C_9  and  C_10
REMARK    7  A    between atoms: C_10  and  N_11
REMARK                            x       y       z     vdW  Elec       q    Type
REMARK                         _______ _______ _______ _____ _____    ______ ____
ROOT
ATOM      1  N   UNL     1     -10.418  16.137  69.350  0.00  0.00    -0.288 N 
ENDROOT
BRANCH   1   2
ATOM      2  C   UNL     1      -9.015  15.927  69.148  0.00  0.00    +0.132 A 
ATOM      3  N   UNL     1      -8.535  14.674  69.002  0.00  0.00    -0.229 NA
ATOM      4  C   UNL     1      -7.364  14.405  68.386  0.00  0.00    +0.100 A 
ATOM      5  C   UNL     1      -6.940  15.322  67.442  0.00  0.00    +0.021 A 
ATOM      6  C   UNL     1      -7.262  16.644  67.630  0.00  0.00    +0.004 A 
ATOM      7  C   UNL     1      -8.286  16.931  68.524  0.00  0.00    +0.034 A 
ENDBRANCH   1   2
BRANCH   1   8
ATOM      8  C   UNL     1     -11.252  16.367  68.196  0.00  0.00    +0.119 C 
BRANCH   8  12
ATOM      9  C   UNL     1     -11.918  14.122  64.744  0.00  0.00    +0.139 A 
ATOM     10  C   UNL     1     -11.045  15.175  64.708  0.00  0.00    +0.037 A 
ATOM     11  C   UNL     1     -10.554  15.681  65.879  0.00  0.00    +0.000 A 
ATOM     12  C   UNL     1     -11.049  15.344  67.130  0.00  0.00    -0.002 A 
ATOM     13  C   UNL     1     -11.884  14.232  67.150  0.00  0.00    +0.000 A 
ATOM     14  C   UNL     1     -12.350  13.660  65.973  0.00  0.00    +0.037 A 
BRANCH   9  16
ATOM     15  C   UNL     1     -12.417  12.098  63.428  0.00  0.00    +0.252 C 
ATOM     16  O   UNL     1     -12.416  13.498  63.597  0.00  0.00    -0.471 OA
ENDBRANCH   9  16
ENDBRANCH   8  12
ENDBRANCH   1   8
BRANCH   1  17
ATOM     17  C   UNL     1     -11.047  15.432  70.465  0.00  0.00    +0.110 C 
BRANCH  17  18
ATOM     18  C   UNL     1     -12.543  15.588  70.458  0.00  0.00    +0.094 C 
BRANCH  18  19
ATOM     19  N   UNL     1     -13.068  15.986  71.756  0.00  0.00    -0.269 NA
ATOM     20  C   UNL     1     -14.226  15.213  72.143  0.00  0.00    +0.090 C 
ATOM     21  C   UNL     1     -12.031  15.962  72.776  0.00  0.00    +0.090 C 
ENDBRANCH  18  19
ENDBRANCH  17  18
ENDBRANCH   1  17
TORSDOF 7
ENDMDL
