MODEL 1
REMARK VINA RESULT:      -7.7      0.000      0.000
REMARK  Name = 
REMARK  4 active torsions:
REMARK  status: ('A' for Active; 'I' for Inactive)
REMARK    1  A    between atoms: C_2  and  C_3
REMARK    2  A    between atoms: C_2  and  C_8
REMARK    3  A    between atoms: C_3  and  C_4
REMARK    4  A    between atoms: C_4  and  C_5
REMARK                            x       y       z     vdW  Elec       q    Type
REMARK                         _______ _______ _______ _____ _____    ______ ____
ROOT
ATOM      1  C   UNL     1      -8.671  17.302  67.266  0.00  0.00    +0.000 C 
ATOM      2  C   UNL     1      -9.993  16.431  67.000  0.00  0.00    +0.000 C 
ATOM      3  C   UNL     1      -9.120  15.072  67.206  0.00  0.00    +0.002 C 
ATOM      4  C   UNL     1     -10.569  14.229  67.189  0.00  0.00    +0.030 C 
ATOM      5  C   UNL     1     -10.167  13.712  65.658  0.00  0.00    +0.002 C 
ATOM      6  C   UNL     1     -10.760  15.070  64.988  0.00  0.00    +0.000 C 
ATOM      7  C   UNL     1     -11.574  12.974  65.442  0.00  0.00    +0.000 C 
ATOM      8  C   UNL     1     -11.421  11.498  66.118  0.00  0.00    +0.005 C 
ATOM      9  C   UNL     1      -9.876  11.255  65.605  0.00  0.00    +0.033 C 
ATOM     10  C   UNL     1     -10.258  10.650  64.118  0.00  0.00    +0.152 C 
ATOM     11  C   UNL     1     -10.314  12.159  63.446  0.00  0.00    +0.033 C 
ATOM     12  O   UNL     1      -8.785  10.478  63.775  0.00  0.00    -0.223 OA
ATOM     13  C   UNL     1     -11.140  11.885  67.635  0.00  0.00    +0.033 C 
ATOM     14  C   UNL     1     -12.674  13.712  66.007  0.00  0.00    +0.000 C 
ATOM     15  C   UNL     1     -11.623  12.690  63.958  0.00  0.00    +0.003 C 
ATOM     16  C   UNL     1      -9.994  12.914  68.091  0.00  0.00    +0.152 C 
ATOM     17  O   UNL     1      -8.850  12.519  67.164  0.00  0.00    -0.223 OA
ATOM     18  C   UNL     1      -9.080  15.376  68.794  0.00  0.00    +0.000 C 
ATOM     19  C   UNL     1     -10.964  16.528  68.076  0.00  0.00    +0.000 C 
ATOM     20  C   UNL     1     -10.338  16.281  65.629  0.00  0.00    +0.000 C 
ATOM     21  C   UNL     1      -8.505  16.738  68.778  0.00  0.00    +0.000 C 
ENDROOT
BRANCH   1  23
ATOM     22  C   UNL     1      -9.320  19.589  66.454  0.00  0.00    +0.000 C 
ATOM     23  C   UNL     1      -9.420  18.726  67.826  0.00  0.00    +0.001 C 
BRANCH  23  24
ATOM     24  C   UNL     1      -8.015  19.355  68.337  0.00  0.00    +0.012 C 
BRANCH  24  25
ATOM     25  C   UNL     1      -7.595  20.427  67.415  0.00  0.00    +0.114 C 
BRANCH  25  26
ATOM     26  C   UNL     1      -6.262  21.007  67.715  0.00  0.00    +0.365 C 
ATOM     27  O   UNL     1      -5.656  22.010  66.956  0.00  0.00    -0.246 OA
ATOM     28  O   UNL     1      -5.900  20.872  68.923  0.00  0.00    -0.246 OA
ENDBRANCH  25  26
ENDBRANCH  24  25
ENDBRANCH  23  24
ENDBRANCH   1  23
TORSDOF 4
ENDMDL
MODEL 2
REMARK VINA RESULT:      -7.3      4.748      9.125
REMARK  Name = 
REMARK  4 active torsions:
REMARK  status: ('A' for Active; 'I' for Inactive)
REMARK    1  A    between atoms: C_2  and  C_3
REMARK    2  A    between atoms: C_2  and  C_8
REMARK    3  A    between atoms: C_3  and  C_4
REMARK    4  A    between atoms: C_4  and  C_5
REMARK                            x       y       z     vdW  Elec       q    Type
REMARK                         _______ _______ _______ _____ _____    ______ ____
ROOT
ATOM      1  C   UNL     1     -11.066   7.775  69.706  0.00  0.00    +0.000 C 
ATOM      2  C   UNL     1     -10.031   8.718  68.918  0.00  0.00    +0.000 C 
ATOM      3  C   UNL     1     -11.202   9.839  68.757  0.00  0.00    +0.002 C 
ATOM      4  C   UNL     1     -10.018  10.881  68.185  0.00  0.00    +0.030 C 
ATOM      5  C   UNL     1     -10.656  10.655  66.664  0.00  0.00    +0.002 C 
ATOM      6  C   UNL     1      -9.792   9.293  66.449  0.00  0.00    +0.000 C 
ATOM      7  C   UNL     1      -9.502  11.515  65.958  0.00  0.00    +0.000 C 
ATOM      8  C   UNL     1      -9.971  13.074  66.061  0.00  0.00    +0.005 C 
ATOM      9  C   UNL     1     -11.562  12.775  65.764  0.00  0.00    +0.033 C 
ATOM     10  C   UNL     1     -11.462  12.804  64.118  0.00  0.00    +0.152 C 
ATOM     11  C   UNL     1     -11.078  11.198  64.047  0.00  0.00    +0.033 C 
ATOM     12  O   UNL     1     -12.953  12.523  63.991  0.00  0.00    -0.223 OA
ATOM     13  C   UNL     1     -10.026  13.272  67.638  0.00  0.00    +0.033 C 
ATOM     14  C   UNL     1      -8.211  11.302  66.558  0.00  0.00    +0.000 C 
ATOM     15  C   UNL     1      -9.642  11.191  64.487  0.00  0.00    +0.003 C 
ATOM     16  C   UNL     1     -10.835  12.299  68.627  0.00  0.00    +0.152 C 
ATOM     17  O   UNL     1     -12.111  12.052  67.828  0.00  0.00    -0.223 OA
ATOM     18  C   UNL     1     -11.040  10.188  70.327  0.00  0.00    +0.000 C 
ATOM     19  C   UNL     1      -8.988   9.254  69.773  0.00  0.00    +0.000 C 
ATOM     20  C   UNL     1      -9.843   8.378  67.551  0.00  0.00    +0.000 C 
ATOM     21  C   UNL     1     -11.250   8.846  70.910  0.00  0.00    +0.000 C 
ENDROOT
BRANCH   1  23
ATOM     22  C   UNL     1      -9.831   5.588  69.626  0.00  0.00    +0.000 C 
ATOM     23  C   UNL     1      -9.940   6.873  70.613  0.00  0.00    +0.001 C 
BRANCH  23  24
ATOM     24  C   UNL     1     -11.104   6.135  71.466  0.00  0.00    +0.012 C 
BRANCH  24  25
ATOM     25  C   UNL     1     -10.488   5.187  72.414  0.00  0.00    +0.114 C 
BRANCH  25  26
ATOM     26  C   UNL     1     -10.645   5.559  73.842  0.00  0.00    +0.365 C 
ATOM     27  O   UNL     1     -10.594   4.647  74.899  0.00  0.00    -0.246 OA
ATOM     28  O   UNL     1     -10.385   6.775  74.091  0.00  0.00    -0.246 OA
ENDBRANCH  25  26
ENDBRANCH  24  25
ENDBRANCH  23  24
ENDBRANCH   1  23
TORSDOF 4
ENDMDL
MODEL 3
REMARK VINA RESULT:      -7.3      3.452      5.421
REMARK  Name = 
REMARK  4 active torsions:
REMARK  status: ('A' for Active; 'I' for Inactive)
REMARK    1  A    between atoms: C_2  and  C_3
REMARK    2  A    between atoms: C_2  and  C_8
REMARK    3  A    between atoms: C_3  and  C_4
REMARK    4  A    between atoms: C_4  and  C_5
REMARK                            x       y       z     vdW  Elec       q    Type
REMARK                         _______ _______ _______ _____ _____    ______ ____
ROOT
ATOM      1  C   UNL     1      -6.003  19.775  69.050  0.00  0.00    +0.000 C 
ATOM      2  C   UNL     1      -6.441  18.455  68.247  0.00  0.00    +0.000 C 
ATOM      3  C   UNL     1      -7.996  18.927  68.353  0.00  0.00    +0.002 C 
ATOM      4  C   UNL     1      -8.365  17.684  67.288  0.00  0.00    +0.030 C 
ATOM      5  C   UNL     1      -9.002  16.859  68.586  0.00  0.00    +0.002 C 
ATOM      6  C   UNL     1      -7.539  16.285  69.005  0.00  0.00    +0.000 C 
ATOM      7  C   UNL     1      -9.286  15.540  67.719  0.00  0.00    +0.000 C 
ATOM      8  C   UNL     1     -10.730  15.774  66.998  0.00  0.00    +0.005 C 
ATOM      9  C   UNL     1     -11.434  16.501  68.296  0.00  0.00    +0.033 C 
ATOM     10  C   UNL     1     -11.918  15.118  69.054  0.00  0.00    +0.152 C 
ATOM     11  C   UNL     1     -10.472  14.964  69.840  0.00  0.00    +0.033 C 
ATOM     12  O   UNL     1     -12.530  15.920  70.194  0.00  0.00    -0.223 OA
ATOM     13  C   UNL     1     -10.422  17.056  66.109  0.00  0.00    +0.033 C 
ATOM     14  C   UNL     1      -8.244  15.276  66.762  0.00  0.00    +0.000 C 
ATOM     15  C   UNL     1      -9.565  14.469  68.750  0.00  0.00    +0.003 C 
ATOM     16  C   UNL     1      -9.778  18.407  66.692  0.00  0.00    +0.152 C 
ATOM     17  O   UNL     1     -10.512  18.540  68.022  0.00  0.00    -0.223 OA
ATOM     18  C   UNL     1      -7.694  20.063  67.243  0.00  0.00    +0.000 C 
ATOM     19  C   UNL     1      -6.041  18.481  66.851  0.00  0.00    +0.000 C 
ATOM     20  C   UNL     1      -6.501  17.274  69.036  0.00  0.00    +0.000 C 
ATOM     21  C   UNL     1      -6.568  20.764  67.895  0.00  0.00    +0.000 C 
ENDROOT
BRANCH   1  23
ATOM     22  C   UNL     1      -3.699  18.874  69.486  0.00  0.00    +0.000 C 
ATOM     23  C   UNL     1      -4.411  19.910  68.459  0.00  0.00    +0.001 C 
BRANCH  23  24
ATOM     24  C   UNL     1      -4.067  21.146  69.449  0.00  0.00    +0.012 C 
BRANCH  24  25
ATOM     25  C   UNL     1      -3.119  20.694  70.484  0.00  0.00    +0.114 C 
BRANCH  25  26
ATOM     26  C   UNL     1      -3.490  21.083  71.868  0.00  0.00    +0.365 C 
ATOM     27  O   UNL     1      -4.371  22.121  72.180  0.00  0.00    -0.246 OA
ATOM     28  O   UNL     1      -3.325  20.163  72.725  0.00  0.00    -0.246 OA
ENDBRANCH  25  26
ENDBRANCH  24  25
ENDBRANCH  23  24
ENDBRANCH   1  23
TORSDOF 4
ENDMDL
MODEL 4
REMARK VINA RESULT:      -7.2      2.168      7.965
REMARK  Name = 
REMARK  4 active torsions:
REMARK  status: ('A' for Active; 'I' for Inactive)
REMARK    1  A    between atoms: C_2  and  C_3
REMARK    2  A    between atoms: C_2  and  C_8
REMARK    3  A    between atoms: C_3  and  C_4
REMARK    4  A    between atoms: C_4  and  C_5
REMARK                            x       y       z     vdW  Elec       q    Type
REMARK                         _______ _______ _______ _____ _____    ______ ____
ROOT
ATOM      1  C   UNL     1      -9.052  15.046  66.117  0.00  0.00    +0.000 C 
ATOM      2  C   UNL     1      -8.469  16.034  67.242  0.00  0.00    +0.000 C 
ATOM      3  C   UNL     1      -8.435  17.236  66.145  0.00  0.00    +0.002 C 
ATOM      4  C   UNL     1      -8.088  18.279  67.412  0.00  0.00    +0.030 C 
ATOM      5  C   UNL     1      -6.523  18.331  66.845  0.00  0.00    +0.002 C 
ATOM      6  C   UNL     1      -6.134  16.969  67.643  0.00  0.00    +0.000 C 
ATOM      7  C   UNL     1      -6.013  19.218  68.080  0.00  0.00    +0.000 C 
ATOM      8  C   UNL     1      -6.340  20.768  67.692  0.00  0.00    +0.005 C 
ATOM      9  C   UNL     1      -5.930  20.618  66.105  0.00  0.00    +0.033 C 
ATOM     10  C   UNL     1      -4.315  20.895  66.294  0.00  0.00    +0.152 C 
ATOM     11  C   UNL     1      -4.008  19.299  66.593  0.00  0.00    +0.033 C 
ATOM     12  O   UNL     1      -4.080  20.730  64.799  0.00  0.00    -0.223 OA
ATOM     13  C   UNL     1      -7.924  20.722  67.564  0.00  0.00    +0.033 C 
ATOM     14  C   UNL     1      -6.629  18.834  69.324  0.00  0.00    +0.000 C 
ATOM     15  C   UNL     1      -4.505  19.134  68.001  0.00  0.00    +0.003 C 
ATOM     16  C   UNL     1      -8.711  19.659  66.651  0.00  0.00    +0.152 C 
ATOM     17  O   UNL     1      -7.828  19.619  65.408  0.00  0.00    -0.223 OA
ATOM     18  C   UNL     1     -10.047  17.328  66.242  0.00  0.00    +0.000 C 
ATOM     19  C   UNL     1      -9.443  16.366  68.267  0.00  0.00    +0.000 C 
ATOM     20  C   UNL     1      -7.075  15.899  67.484  0.00  0.00    +0.000 C 
ATOM     21  C   UNL     1     -10.400  15.927  65.927  0.00  0.00    +0.000 C 
ENDROOT
BRANCH   1  23
ATOM     22  C   UNL     1      -8.606  12.947  67.423  0.00  0.00    +0.000 C 
ATOM     23  C   UNL     1      -9.854  13.947  67.143  0.00  0.00    +0.001 C 
BRANCH  23  24
ATOM     24  C   UNL     1     -10.332  13.021  65.901  0.00  0.00    +0.012 C 
BRANCH  24  25
ATOM     25  C   UNL     1     -11.737  12.620  66.103  0.00  0.00    +0.114 C 
BRANCH  25  26
ATOM     26  C   UNL     1     -12.659  13.051  65.023  0.00  0.00    +0.365 C 
ATOM     27  O   UNL     1     -13.143  12.205  64.023  0.00  0.00    -0.246 OA
ATOM     28  O   UNL     1     -13.331  14.090  65.302  0.00  0.00    -0.246 OA
ENDBRANCH  25  26
ENDBRANCH  24  25
ENDBRANCH  23  24
ENDBRANCH   1  23
TORSDOF 4
ENDMDL
MODEL 5
REMARK VINA RESULT:      -6.9      2.124      3.018
REMARK  Name = 
REMARK  4 active torsions:
REMARK  status: ('A' for Active; 'I' for Inactive)
REMARK    1  A    between atoms: C_2  and  C_3
REMARK    2  A    between atoms: C_2  and  C_8
REMARK    3  A    between atoms: C_3  and  C_4
REMARK    4  A    between atoms: C_4  and  C_5
REMARK                            x       y       z     vdW  Elec       q    Type
REMARK                         _______ _______ _______ _____ _____    ______ ____
ROOT
ATOM      1  C   UNL     1      -8.160  17.249  68.740  0.00  0.00    +0.000 C 
ATOM      2  C   UNL     1      -8.549  16.264  67.532  0.00  0.00    +0.000 C 
ATOM      3  C   UNL     1      -9.791  15.695  68.417  0.00  0.00    +0.002 C 
ATOM      4  C   UNL     1     -10.306  14.893  67.038  0.00  0.00    +0.030 C 
ATOM      5  C   UNL     1      -9.757  13.486  67.738  0.00  0.00    +0.002 C 
ATOM      6  C   UNL     1      -8.241  13.756  67.213  0.00  0.00    +0.000 C 
ATOM      7  C   UNL     1     -10.068  12.611  66.431  0.00  0.00    +0.000 C 
ATOM      8  C   UNL     1     -11.643  12.194  66.529  0.00  0.00    +0.005 C 
ATOM      9  C   UNL     1     -11.627  11.918  68.151  0.00  0.00    +0.033 C 
ATOM     10  C   UNL     1     -11.108  10.353  68.078  0.00  0.00    +0.152 C 
ATOM     11  C   UNL     1      -9.520  10.811  68.073  0.00  0.00    +0.033 C 
ATOM     12  O   UNL     1     -11.141  10.238  69.595  0.00  0.00    -0.223 OA
ATOM     13  C   UNL     1     -12.338  13.624  66.508  0.00  0.00    +0.033 C 
ATOM     14  C   UNL     1      -9.775  13.319  65.212  0.00  0.00    +0.000 C 
ATOM     15  C   UNL     1      -9.333  11.311  66.669  0.00  0.00    +0.003 C 
ATOM     16  C   UNL     1     -11.935  14.821  67.500  0.00  0.00    +0.152 C 
ATOM     17  O   UNL     1     -11.739  14.070  68.813  0.00  0.00    -0.223 OA
ATOM     18  C   UNL     1     -10.576  17.083  68.151  0.00  0.00    +0.000 C 
ATOM     19  C   UNL     1      -9.082  16.965  66.377  0.00  0.00    +0.000 C 
ATOM     20  C   UNL     1      -7.759  15.085  67.452  0.00  0.00    +0.000 C 
ATOM     21  C   UNL     1      -9.571  18.045  68.652  0.00  0.00    +0.000 C 
ENDROOT
BRANCH   1  23
ATOM     22  C   UNL     1      -5.841  17.955  68.080  0.00  0.00    +0.000 C 
ATOM     23  C   UNL     1      -7.366  18.454  67.834  0.00  0.00    +0.001 C 
BRANCH  23  24
ATOM     24  C   UNL     1      -7.259  19.449  69.109  0.00  0.00    +0.012 C 
BRANCH  24  25
ATOM     25  C   UNL     1      -5.906  20.033  69.161  0.00  0.00    +0.114 C 
BRANCH  25  26
ATOM     26  C   UNL     1      -5.533  20.601  70.481  0.00  0.00    +0.365 C 
ATOM     27  O   UNL     1      -4.584  21.609  70.659  0.00  0.00    -0.246 OA
ATOM     28  O   UNL     1      -6.418  20.450  71.376  0.00  0.00    -0.246 OA
ENDBRANCH  25  26
ENDBRANCH  24  25
ENDBRANCH  23  24
ENDBRANCH   1  23
TORSDOF 4
ENDMDL
MODEL 6
REMARK VINA RESULT:      -6.9      4.819      8.154
REMARK  Name = 
REMARK  4 active torsions:
REMARK  status: ('A' for Active; 'I' for Inactive)
REMARK    1  A    between atoms: C_2  and  C_3
REMARK    2  A    between atoms: C_2  and  C_8
REMARK    3  A    between atoms: C_3  and  C_4
REMARK    4  A    between atoms: C_4  and  C_5
REMARK                            x       y       z     vdW  Elec       q    Type
REMARK                         _______ _______ _______ _____ _____    ______ ____
ROOT
ATOM      1  C   UNL     1     -10.386  10.617  66.395  0.00  0.00    +0.000 C 
ATOM      2  C   UNL     1      -9.487  10.100  67.621  0.00  0.00    +0.000 C 
ATOM      3  C   UNL     1     -10.340   8.714  67.642  0.00  0.00    +0.002 C 
ATOM      4  C   UNL     1      -9.208   8.122  68.729  0.00  0.00    +0.030 C 
ATOM      5  C   UNL     1     -10.357   8.314  69.918  0.00  0.00    +0.002 C 
ATOM      6  C   UNL     1      -9.968   9.882  70.113  0.00  0.00    +0.000 C 
ATOM      7  C   UNL     1      -9.341   7.902  71.088  0.00  0.00    +0.000 C 
ATOM      8  C   UNL     1      -9.362   6.272  71.154  0.00  0.00    +0.005 C 
ATOM      9  C   UNL     1     -10.982   6.131  70.901  0.00  0.00    +0.033 C 
ATOM     10  C   UNL     1     -11.442   6.305  72.476  0.00  0.00    +0.152 C 
ATOM     11  C   UNL     1     -11.498   7.952  72.346  0.00  0.00    +0.033 C 
ATOM     12  O   UNL     1     -12.908   6.157  72.097  0.00  0.00    -0.223 OA
ATOM     13  C   UNL     1      -8.832   5.902  69.701  0.00  0.00    +0.033 C 
ATOM     14  C   UNL     1      -8.013   8.413  70.868  0.00  0.00    +0.000 C 
ATOM     15  C   UNL     1     -10.043   8.325  72.359  0.00  0.00    +0.003 C 
ATOM     16  C   UNL     1      -9.466   6.491  68.348  0.00  0.00    +0.152 C 
ATOM     17  O   UNL     1     -10.956   6.443  68.668  0.00  0.00    -0.223 OA
ATOM     18  C   UNL     1      -9.579   8.262  66.289  0.00  0.00    +0.000 C 
ATOM     19  C   UNL     1      -8.120   9.799  67.236  0.00  0.00    +0.000 C 
ATOM     20  C   UNL     1      -9.859  10.622  68.890  0.00  0.00    +0.000 C 
ATOM     21  C   UNL     1      -9.892   9.417  65.422  0.00  0.00    +0.000 C 
ENDROOT
BRANCH   1  23
ATOM     22  C   UNL     1      -9.784  13.055  66.443  0.00  0.00    +0.000 C 
ATOM     23  C   UNL     1      -9.269  11.703  65.707  0.00  0.00    +0.001 C 
BRANCH  23  24
ATOM     24  C   UNL     1     -10.233  12.011  64.441  0.00  0.00    +0.012 C 
BRANCH  24  25
ATOM     25  C   UNL     1     -10.782  13.375  64.565  0.00  0.00    +0.114 C 
BRANCH  25  26
ATOM     26  C   UNL     1     -12.225  13.486  64.238  0.00  0.00    +0.365 C 
ATOM     27  O   UNL     1     -13.202  12.595  64.687  0.00  0.00    -0.246 OA
ATOM     28  O   UNL     1     -12.592  14.656  63.910  0.00  0.00    -0.246 OA
ENDBRANCH  25  26
ENDBRANCH  24  25
ENDBRANCH  23  24
ENDBRANCH   1  23
TORSDOF 4
ENDMDL
MODEL 7
REMARK VINA RESULT:      -6.8      5.374      8.743
REMARK  Name = 
REMARK  4 active torsions:
REMARK  status: ('A' for Active; 'I' for Inactive)
REMARK    1  A    between atoms: C_2  and  C_3
REMARK    2  A    between atoms: C_2  and  C_8
REMARK    3  A    between atoms: C_3  and  C_4
REMARK    4  A    between atoms: C_4  and  C_5
REMARK                            x       y       z     vdW  Elec       q    Type
REMARK                         _______ _______ _______ _____ _____    ______ ____
ROOT
ATOM      1  C   UNL     1     -11.115  10.268  67.663  0.00  0.00    +0.000 C 
ATOM      2  C   UNL     1      -9.987   9.916  68.751  0.00  0.00    +0.000 C 
ATOM      3  C   UNL     1     -10.437   8.352  68.687  0.00  0.00    +0.002 C 
ATOM      4  C   UNL     1      -9.082   8.003  69.611  0.00  0.00    +0.030 C 
ATOM      5  C   UNL     1     -10.110   7.774  70.901  0.00  0.00    +0.002 C 
ATOM      6  C   UNL     1     -10.130   9.366  71.234  0.00  0.00    +0.000 C 
ATOM      7  C   UNL     1      -8.903   7.558  71.935  0.00  0.00    +0.000 C 
ATOM      8  C   UNL     1      -8.487   5.985  71.825  0.00  0.00    +0.005 C 
ATOM      9  C   UNL     1     -10.029   5.428  71.685  0.00  0.00    +0.033 C 
ATOM     10  C   UNL     1     -10.351   5.338  73.301  0.00  0.00    +0.152 C 
ATOM     11  C   UNL     1     -10.853   6.911  73.356  0.00  0.00    +0.033 C 
ATOM     12  O   UNL     1     -11.757   4.827  73.025  0.00  0.00    -0.223 OA
ATOM     13  C   UNL     1      -8.033   5.897  70.303  0.00  0.00    +0.033 C 
ATOM     14  C   UNL     1      -7.788   8.429  71.670  0.00  0.00    +0.000 C 
ATOM     15  C   UNL     1      -9.556   7.666  73.296  0.00  0.00    +0.003 C 
ATOM     16  C   UNL     1      -8.938   6.402  69.076  0.00  0.00    +0.152 C 
ATOM     17  O   UNL     1     -10.320   5.922  69.505  0.00  0.00    -0.223 OA
ATOM     18  C   UNL     1      -9.730   8.240  67.237  0.00  0.00    +0.000 C 
ATOM     19  C   UNL     1      -8.638  10.033  68.229  0.00  0.00    +0.000 C 
ATOM     20  C   UNL     1     -10.349  10.208  70.095  0.00  0.00    +0.000 C 
ATOM     21  C   UNL     1     -10.426   9.335  66.529  0.00  0.00    +0.000 C 
ENDROOT
BRANCH   1  23
ATOM     22  C   UNL     1     -11.116  12.760  67.984  0.00  0.00    +0.000 C 
ATOM     23  C   UNL     1     -10.403  11.672  67.012  0.00  0.00    +0.001 C 
BRANCH  23  24
ATOM     24  C   UNL     1     -11.585  11.856  65.918  0.00  0.00    +0.012 C 
BRANCH  24  25
ATOM     25  C   UNL     1     -11.139  12.795  64.871  0.00  0.00    +0.114 C 
BRANCH  25  26
ATOM     26  C   UNL     1     -12.126  13.014  63.784  0.00  0.00    +0.365 C 
ATOM     27  O   UNL     1     -12.919  12.007  63.231  0.00  0.00    -0.246 OA
ATOM     28  O   UNL     1     -12.532  14.212  63.689  0.00  0.00    -0.246 OA
ENDBRANCH  25  26
ENDBRANCH  24  25
ENDBRANCH  23  24
ENDBRANCH   1  23
TORSDOF 4
ENDMDL
MODEL 8
REMARK VINA RESULT:      -6.7      2.715      8.566
REMARK  Name = 
REMARK  4 active torsions:
REMARK  status: ('A' for Active; 'I' for Inactive)
REMARK    1  A    between atoms: C_2  and  C_3
REMARK    2  A    between atoms: C_2  and  C_8
REMARK    3  A    between atoms: C_3  and  C_4
REMARK    4  A    between atoms: C_4  and  C_5
REMARK                            x       y       z     vdW  Elec       q    Type
REMARK                         _______ _______ _______ _____ _____    ______ ____
ROOT
ATOM      1  C   UNL     1      -8.617  15.708  68.569  0.00  0.00    +0.000 C 
ATOM      2  C   UNL     1      -7.800  16.939  67.938  0.00  0.00    +0.000 C 
ATOM      3  C   UNL     1      -6.531  16.560  68.885  0.00  0.00    +0.002 C 
ATOM      4  C   UNL     1      -5.641  17.679  68.007  0.00  0.00    +0.030 C 
ATOM      5  C   UNL     1      -5.743  18.688  69.328  0.00  0.00    +0.002 C 
ATOM      6  C   UNL     1      -7.201  19.236  68.860  0.00  0.00    +0.000 C 
ATOM      7  C   UNL     1      -5.026  19.902  68.564  0.00  0.00    +0.000 C 
ATOM      8  C   UNL     1      -3.421  19.652  68.721  0.00  0.00    +0.005 C 
ATOM      9  C   UNL     1      -3.500  19.126  70.278  0.00  0.00    +0.033 C 
ATOM     10  C   UNL     1      -3.444  20.613  70.989  0.00  0.00    +0.152 C 
ATOM     11  C   UNL     1      -5.085  20.792  70.897  0.00  0.00    +0.033 C 
ATOM     12  O   UNL     1      -3.522  19.988  72.375  0.00  0.00    -0.223 OA
ATOM     13  C   UNL     1      -3.257  18.257  67.975  0.00  0.00    +0.033 C 
ATOM     14  C   UNL     1      -5.423  19.995  67.183  0.00  0.00    +0.000 C 
ATOM     15  C   UNL     1      -5.293  21.104  69.443  0.00  0.00    +0.003 C 
ATOM     16  C   UNL     1      -4.138  16.958  68.317  0.00  0.00    +0.152 C 
ATOM     17  O   UNL     1      -4.194  17.026  69.840  0.00  0.00    -0.223 OA
ATOM     18  C   UNL     1      -6.244  15.283  67.936  0.00  0.00    +0.000 C 
ATOM     19  C   UNL     1      -7.428  16.722  66.551  0.00  0.00    +0.000 C 
ATOM     20  C   UNL     1      -8.128  18.209  68.484  0.00  0.00    +0.000 C 
ATOM     21  C   UNL     1      -7.560  14.613  68.006  0.00  0.00    +0.000 C 
ENDROOT
BRANCH   1  23
ATOM     22  C   UNL     1     -10.967  16.230  67.849  0.00  0.00    +0.000 C 
ATOM     23  C   UNL     1      -9.682  15.424  67.269  0.00  0.00    +0.001 C 
BRANCH  23  24
ATOM     24  C   UNL     1     -10.235  14.048  67.925  0.00  0.00    +0.012 C 
BRANCH  24  25
ATOM     25  C   UNL     1     -11.583  13.764  67.399  0.00  0.00    +0.114 C 
BRANCH  25  26
ATOM     26  C   UNL     1     -11.762  12.384  66.882  0.00  0.00    +0.365 C 
ATOM     27  O   UNL     1     -11.836  11.248  67.691  0.00  0.00    -0.246 OA
ATOM     28  O   UNL     1     -12.284  12.328  65.728  0.00  0.00    -0.246 OA
ENDBRANCH  25  26
ENDBRANCH  24  25
ENDBRANCH  23  24
ENDBRANCH   1  23
TORSDOF 4
ENDMDL
MODEL 9
REMARK VINA RESULT:      -6.7      2.303      7.711
REMARK  Name = 
REMARK  4 active torsions:
REMARK  status: ('A' for Active; 'I' for Inactive)
REMARK    1  A    between atoms: C_2  and  C_3
REMARK    2  A    between atoms: C_2  and  C_8
REMARK    3  A    between atoms: C_3  and  C_4
REMARK    4  A    between atoms: C_4  and  C_5
REMARK                            x       y       z     vdW  Elec       q    Type
REMARK                         _______ _______ _______ _____ _____    ______ ____
ROOT
ATOM      1  C   UNL     1      -9.352  13.848  66.553  0.00  0.00    +0.000 C 
ATOM      2  C   UNL     1      -8.645  14.934  67.501  0.00  0.00    +0.000 C 
ATOM      3  C   UNL     1      -9.239  16.120  66.557  0.00  0.00    +0.002 C 
ATOM      4  C   UNL     1      -8.711  17.206  67.722  0.00  0.00    +0.030 C 
ATOM      5  C   UNL     1      -7.480  17.615  66.678  0.00  0.00    +0.002 C 
ATOM      6  C   UNL     1      -6.565  16.371  67.189  0.00  0.00    +0.000 C 
ATOM      7  C   UNL     1      -6.781  18.586  67.746  0.00  0.00    +0.000 C 
ATOM      8  C   UNL     1      -7.539  20.024  67.616  0.00  0.00    +0.005 C 
ATOM      9  C   UNL     1      -7.669  19.981  65.976  0.00  0.00    +0.033 C 
ATOM     10  C   UNL     1      -6.182  20.616  65.646  0.00  0.00    +0.152 C 
ATOM     11  C   UNL     1      -5.463  19.128  65.695  0.00  0.00    +0.033 C 
ATOM     12  O   UNL     1      -6.438  20.518  64.149  0.00  0.00    -0.223 OA
ATOM     13  C   UNL     1      -9.025  19.621  68.012  0.00  0.00    +0.033 C 
ATOM     14  C   UNL     1      -6.843  18.064  69.087  0.00  0.00    +0.000 C 
ATOM     15  C   UNL     1      -5.407  18.846  67.169  0.00  0.00    +0.003 C 
ATOM     16  C   UNL     1      -9.831  18.414  67.324  0.00  0.00    +0.152 C 
ATOM     17  O   UNL     1      -9.434  18.583  65.862  0.00  0.00    -0.223 OA
ATOM     18  C   UNL     1     -10.703  15.844  67.185  0.00  0.00    +0.000 C 
ATOM     19  C   UNL     1      -9.261  15.030  68.813  0.00  0.00    +0.000 C 
ATOM     20  C   UNL     1      -7.256  15.116  67.260  0.00  0.00    +0.000 C 
ATOM     21  C   UNL     1     -10.839  14.402  66.890  0.00  0.00    +0.000 C 
ENDROOT
BRANCH   1  23
ATOM     22  C   UNL     1      -8.196  11.733  67.264  0.00  0.00    +0.000 C 
ATOM     23  C   UNL     1      -9.508  12.588  67.690  0.00  0.00    +0.001 C 
BRANCH  23  24
ATOM     24  C   UNL     1     -10.426  11.699  66.693  0.00  0.00    +0.012 C 
BRANCH  24  25
ATOM     25  C   UNL     1     -10.656  10.372  67.294  0.00  0.00    +0.114 C 
BRANCH  25  26
ATOM     26  C   UNL     1     -11.353  10.405  68.605  0.00  0.00    +0.365 C 
ATOM     27  O   UNL     1     -10.721  10.195  69.832  0.00  0.00    -0.246 OA
ATOM     28  O   UNL     1     -12.437  11.062  68.597  0.00  0.00    -0.246 OA
ENDBRANCH  25  26
ENDBRANCH  24  25
ENDBRANCH  23  24
ENDBRANCH   1  23
TORSDOF 4
ENDMDL
