MODEL 1
REMARK VINA RESULT:      -6.6      0.000      0.000
REMARK  Name = 
REMARK  14 active torsions:
REMARK  status: ('A' for Active; 'I' for Inactive)
REMARK    1  A    between atoms: C_2  and  C_18
REMARK    2  A    between atoms: C_3  and  C_4
REMARK    3  A    between atoms: C_4  and  C_5
REMARK    4  A    between atoms: C_18  and  C_19
REMARK    5  A    between atoms: C_19  and  C_20
REMARK    6  A    between atoms: C_20  and  C_21
REMARK    7  A    between atoms: C_21  and  C_23
REMARK    8  A    between atoms: C_23  and  C_24
REMARK    9  A    between atoms: C_24  and  C_25
REMARK   10  A    between atoms: C_25  and  C_26
REMARK   11  A    between atoms: C_26  and  C_28
REMARK   12  A    between atoms: C_28  and  C_29
REMARK   13  A    between atoms: C_29  and  C_30
REMARK   14  A    between atoms: C_30  and  C_31
REMARK                            x       y       z     vdW  Elec       q    Type
REMARK                         _______ _______ _______ _____ _____    ______ ____
ROOT
ATOM      1  C   UNL     1      -8.642  11.435  66.510  0.00  0.00    +0.026 C 
ATOM      2  C   UNL     1      -9.108  10.331  65.609  0.00  0.00    -0.048 C 
ATOM      3  C   UNL     1      -9.737   9.392  66.286  0.00  0.00    -0.030 C 
ENDROOT
BRANCH   2   4
ATOM      4  C   UNL     1      -9.337  10.738  64.212  0.00  0.00    +0.022 C 
BRANCH   4   5
ATOM      5  C   UNL     1     -10.757  11.072  63.888  0.00  0.00    +0.004 C 
BRANCH   5   6
ATOM      6  C   UNL     1     -10.945  12.547  63.989  0.00  0.00    +0.000 C 
BRANCH   6   7
ATOM      7  C   UNL     1     -12.438  12.820  64.583  0.00  0.00    +0.000 C 
ATOM      8  C   UNL     1     -12.339  14.432  64.354  0.00  0.00    +0.000 C 
BRANCH   7   9
ATOM      9  C   UNL     1     -11.919  12.922  66.128  0.00  0.00    +0.000 C 
BRANCH   9  10
ATOM     10  C   UNL     1     -11.901  14.380  66.485  0.00  0.00    +0.000 C 
BRANCH  10  11
ATOM     11  C   UNL     1     -10.961  14.694  67.589  0.00  0.00    +0.000 C 
BRANCH  11  12
ATOM     12  C   UNL     1     -11.719  15.654  68.668  0.00  0.00    +0.000 C 
ATOM     13  C   UNL     1     -10.723  16.904  68.333  0.00  0.00    +0.000 C 
BRANCH  12  14
ATOM     14  C   UNL     1     -10.830  15.119  69.925  0.00  0.00    +0.000 C 
BRANCH  14  15
ATOM     15  C   UNL     1     -11.716  14.771  71.051  0.00  0.00    +0.000 C 
BRANCH  15  16
ATOM     16  C   UNL     1     -13.035  15.535  71.054  0.00  0.00    +0.000 C 
BRANCH  16  17
ATOM     17  C   UNL     1     -13.633  15.141  72.402  0.00  0.00    +0.000 C 
ATOM     18  C   UNL     1     -12.949  15.777  73.558  0.00  0.00    +0.000 C 
ATOM     19  C   UNL     1     -13.680  13.647  72.429  0.00  0.00    +0.000 C 
ENDBRANCH  16  17
ENDBRANCH  15  16
ENDBRANCH  14  15
ENDBRANCH  12  14
ENDBRANCH  11  12
ENDBRANCH  10  11
ENDBRANCH   9  10
ENDBRANCH   7   9
ENDBRANCH   6   7
ENDBRANCH   5   6
ENDBRANCH   4   5
ENDBRANCH   2   4
BRANCH   3  20
ATOM     20  C   UNL     1     -10.788   9.606  67.257  0.00  0.00    +0.055 C 
BRANCH  20  21
ATOM     21  C   UNL     1     -10.565   9.186  68.640  0.00  0.00    +0.020 C 
ATOM     22  C   UNL     1     -10.552   7.748  68.945  0.00  0.00    +0.192 C 
ATOM     23  O   UNL     1     -10.540   6.876  68.023  0.00  0.00    -0.287 OA
ATOM     24  C   UNL     1     -11.061   7.267  70.235  0.00  0.00    +0.042 A 
ATOM     25  C   UNL     1     -11.479   8.150  71.218  0.00  0.00    +0.042 A 
ATOM     26  C   UNL     1     -11.628   7.701  72.523  0.00  0.00    +0.003 A 
ATOM     27  C   UNL     1     -10.876   6.615  72.956  0.00  0.00    +0.000 A 
ATOM     28  C   UNL     1     -10.536   5.691  71.994  0.00  0.00    +0.000 A 
ATOM     29  C   UNL     1     -11.632   9.535  70.826  0.00  0.00    +0.192 C 
ATOM     30  O   UNL     1     -12.328  10.271  71.590  0.00  0.00    -0.287 OA
ATOM     31  C   UNL     1     -10.702   5.998  70.651  0.00  0.00    +0.003 A 
ATOM     32  C   UNL     1     -11.070   9.998  69.576  0.00  0.00    +0.017 C 
ATOM     33  C   UNL     1     -11.104  11.468  69.326  0.00  0.00    +0.034 C 
ENDBRANCH  20  21
ENDBRANCH   3  20
TORSDOF 14
ENDMDL
MODEL 2
REMARK VINA RESULT:      -6.6      1.661      2.718
REMARK  Name = 
REMARK  14 active torsions:
REMARK  status: ('A' for Active; 'I' for Inactive)
REMARK    1  A    between atoms: C_2  and  C_18
REMARK    2  A    between atoms: C_3  and  C_4
REMARK    3  A    between atoms: C_4  and  C_5
REMARK    4  A    between atoms: C_18  and  C_19
REMARK    5  A    between atoms: C_19  and  C_20
REMARK    6  A    between atoms: C_20  and  C_21
REMARK    7  A    between atoms: C_21  and  C_23
REMARK    8  A    between atoms: C_23  and  C_24
REMARK    9  A    between atoms: C_24  and  C_25
REMARK   10  A    between atoms: C_25  and  C_26
REMARK   11  A    between atoms: C_26  and  C_28
REMARK   12  A    between atoms: C_28  and  C_29
REMARK   13  A    between atoms: C_29  and  C_30
REMARK   14  A    between atoms: C_30  and  C_31
REMARK                            x       y       z     vdW  Elec       q    Type
REMARK                         _______ _______ _______ _____ _____    ______ ____
ROOT
ATOM      1  C   UNL     1      -8.541  10.149  64.123  0.00  0.00    +0.026 C 
ATOM      2  C   UNL     1      -9.991  10.522  64.209  0.00  0.00    -0.048 C 
ATOM      3  C   UNL     1     -10.511  10.164  65.366  0.00  0.00    -0.030 C 
ENDROOT
BRANCH   2   4
ATOM      4  C   UNL     1     -10.380  11.662  63.363  0.00  0.00    +0.022 C 
BRANCH   4   5
ATOM      5  C   UNL     1     -11.828  12.020  63.432  0.00  0.00    +0.004 C 
BRANCH   5   6
ATOM      6  C   UNL     1     -11.958  13.478  63.713  0.00  0.00    +0.000 C 
BRANCH   6   7
ATOM      7  C   UNL     1     -11.176  13.788  65.108  0.00  0.00    +0.000 C 
ATOM      8  C   UNL     1     -12.553  13.833  65.982  0.00  0.00    +0.000 C 
BRANCH   7   9
ATOM      9  C   UNL     1     -11.175  15.404  64.871  0.00  0.00    +0.000 C 
BRANCH   9  10
ATOM     10  C   UNL     1     -10.381  16.009  65.993  0.00  0.00    +0.000 C 
BRANCH  10  11
ATOM     11  C   UNL     1      -9.121  15.278  66.271  0.00  0.00    +0.000 C 
BRANCH  11  12
ATOM     12  C   UNL     1      -8.792  15.383  67.865  0.00  0.00    +0.000 C 
ATOM     13  C   UNL     1      -8.802  13.758  68.026  0.00  0.00    +0.000 C 
BRANCH  12  14
ATOM     14  C   UNL     1     -10.356  15.561  68.284  0.00  0.00    +0.000 C 
BRANCH  14  15
ATOM     15  C   UNL     1     -10.654  14.728  69.464  0.00  0.00    +0.000 C 
BRANCH  15  16
ATOM     16  C   UNL     1     -12.144  14.545  69.726  0.00  0.00    +0.000 C 
BRANCH  16  17
ATOM     17  C   UNL     1     -12.199  14.486  71.251  0.00  0.00    +0.000 C 
ATOM     18  C   UNL     1     -13.463  13.904  71.772  0.00  0.00    +0.000 C 
ATOM     19  C   UNL     1     -11.875  15.859  71.744  0.00  0.00    +0.000 C 
ENDBRANCH  16  17
ENDBRANCH  15  16
ENDBRANCH  14  15
ENDBRANCH  12  14
ENDBRANCH  11  12
ENDBRANCH  10  11
ENDBRANCH   9  10
ENDBRANCH   7   9
ENDBRANCH   6   7
ENDBRANCH   5   6
ENDBRANCH   4   5
ENDBRANCH   2   4
BRANCH   3  20
ATOM     20  C   UNL     1      -9.939  10.425  66.668  0.00  0.00    +0.055 C 
BRANCH  20  21
ATOM     21  C   UNL     1     -10.462   9.699  67.826  0.00  0.00    +0.020 C 
ATOM     22  C   UNL     1     -11.504  10.337  68.643  0.00  0.00    +0.192 C 
ATOM     23  O   UNL     1     -12.083  11.401  68.266  0.00  0.00    -0.287 OA
ATOM     24  C   UNL     1     -11.551  10.096  70.090  0.00  0.00    +0.042 A 
ATOM     25  C   UNL     1     -10.680   9.207  70.700  0.00  0.00    +0.042 A 
ATOM     26  C   UNL     1     -10.958   8.744  71.980  0.00  0.00    +0.003 A 
ATOM     27  C   UNL     1     -12.278   8.704  72.413  0.00  0.00    +0.000 A 
ATOM     28  C   UNL     1     -13.123   9.646  71.873  0.00  0.00    +0.000 A 
ATOM     29  C   UNL     1      -9.573   8.727  69.900  0.00  0.00    +0.192 C 
ATOM     30  O   UNL     1      -8.600   8.206  70.525  0.00  0.00    -0.287 OA
ATOM     31  C   UNL     1     -12.722  10.383  70.767  0.00  0.00    +0.003 A 
ATOM     32  C   UNL     1      -9.579   8.926  68.467  0.00  0.00    +0.017 C 
ATOM     33  C   UNL     1      -8.503   8.246  67.689  0.00  0.00    +0.034 C 
ENDBRANCH  20  21
ENDBRANCH   3  20
TORSDOF 14
ENDMDL
MODEL 3
REMARK VINA RESULT:      -6.5      1.691      6.456
REMARK  Name = 
REMARK  14 active torsions:
REMARK  status: ('A' for Active; 'I' for Inactive)
REMARK    1  A    between atoms: C_2  and  C_18
REMARK    2  A    between atoms: C_3  and  C_4
REMARK    3  A    between atoms: C_4  and  C_5
REMARK    4  A    between atoms: C_18  and  C_19
REMARK    5  A    between atoms: C_19  and  C_20
REMARK    6  A    between atoms: C_20  and  C_21
REMARK    7  A    between atoms: C_21  and  C_23
REMARK    8  A    between atoms: C_23  and  C_24
REMARK    9  A    between atoms: C_24  and  C_25
REMARK   10  A    between atoms: C_25  and  C_26
REMARK   11  A    between atoms: C_26  and  C_28
REMARK   12  A    between atoms: C_28  and  C_29
REMARK   13  A    between atoms: C_29  and  C_30
REMARK   14  A    between atoms: C_30  and  C_31
REMARK                            x       y       z     vdW  Elec       q    Type
REMARK                         _______ _______ _______ _____ _____    ______ ____
ROOT
ATOM      1  C   UNL     1     -11.960   8.389  71.710  0.00  0.00    +0.026 C 
ATOM      2  C   UNL     1     -11.761   9.841  71.393  0.00  0.00    -0.048 C 
ATOM      3  C   UNL     1     -10.800  10.011  70.506  0.00  0.00    -0.030 C 
ENDROOT
BRANCH   2   4
ATOM      4  C   UNL     1     -12.953  10.681  71.599  0.00  0.00    +0.022 C 
BRANCH   4   5
ATOM      5  C   UNL     1     -12.722  12.143  71.399  0.00  0.00    +0.004 C 
BRANCH   5   6
ATOM      6  C   UNL     1     -13.650  12.907  72.280  0.00  0.00    +0.000 C 
BRANCH   6   7
ATOM      7  C   UNL     1     -12.968  14.356  72.586  0.00  0.00    +0.000 C 
ATOM      8  C   UNL     1     -14.244  15.188  72.004  0.00  0.00    +0.000 C 
BRANCH   7   9
ATOM      9  C   UNL     1     -12.177  14.403  71.159  0.00  0.00    +0.000 C 
BRANCH   9  10
ATOM     10  C   UNL     1     -11.643  15.799  71.003  0.00  0.00    +0.000 C 
BRANCH  10  11
ATOM     11  C   UNL     1     -10.884  15.991  69.745  0.00  0.00    +0.000 C 
BRANCH  11  12
ATOM     12  C   UNL     1     -10.931  14.606  68.884  0.00  0.00    +0.000 C 
ATOM     13  C   UNL     1      -9.302  14.551  68.787  0.00  0.00    +0.000 C 
BRANCH  12  14
ATOM     14  C   UNL     1     -11.115  15.375  67.459  0.00  0.00    +0.000 C 
BRANCH  14  15
ATOM     15  C   UNL     1     -10.671  16.776  67.587  0.00  0.00    +0.000 C 
BRANCH  15  16
ATOM     16  C   UNL     1      -9.666  17.201  66.524  0.00  0.00    +0.000 C 
BRANCH  16  17
ATOM     17  C   UNL     1      -9.311  18.620  66.964  0.00  0.00    +0.000 C 
ATOM     18  C   UNL     1      -8.436  18.662  68.164  0.00  0.00    +0.000 C 
ATOM     19  C   UNL     1     -10.601  19.364  67.086  0.00  0.00    +0.000 C 
ENDBRANCH  16  17
ENDBRANCH  15  16
ENDBRANCH  14  15
ENDBRANCH  12  14
ENDBRANCH  11  12
ENDBRANCH  10  11
ENDBRANCH   9  10
ENDBRANCH   7   9
ENDBRANCH   6   7
ENDBRANCH   5   6
ENDBRANCH   4   5
ENDBRANCH   2   4
BRANCH   3  20
ATOM     20  C   UNL     1     -10.660   9.291  69.260  0.00  0.00    +0.055 C 
BRANCH  20  21
ATOM     21  C   UNL     1     -10.216  10.020  68.072  0.00  0.00    +0.020 C 
ATOM     22  C   UNL     1     -11.138  10.980  67.450  0.00  0.00    +0.192 C 
ATOM     23  O   UNL     1     -12.219  11.325  68.019  0.00  0.00    -0.287 OA
ATOM     24  C   UNL     1     -11.127  11.172  65.995  0.00  0.00    +0.042 A 
ATOM     25  C   UNL     1     -10.200  10.527  65.192  0.00  0.00    +0.042 A 
ATOM     26  C   UNL     1      -9.988  10.974  63.894  0.00  0.00    +0.003 A 
ATOM     27  C   UNL     1     -10.241  12.306  63.588  0.00  0.00    +0.000 A 
ATOM     28  C   UNL     1     -11.225  12.922  64.327  0.00  0.00    +0.000 A 
ATOM     29  C   UNL     1      -9.423   9.473  65.811  0.00  0.00    +0.192 C 
ATOM     30  O   UNL     1      -8.840   8.660  65.031  0.00  0.00    -0.287 OA
ATOM     31  C   UNL     1     -11.708  12.315  65.478  0.00  0.00    +0.003 A 
ATOM     32  C   UNL     1      -9.405   9.342  67.251  0.00  0.00    +0.017 C 
ATOM     33  C   UNL     1      -8.443   8.358  67.826  0.00  0.00    +0.034 C 
ENDBRANCH  20  21
ENDBRANCH   3  20
TORSDOF 14
ENDMDL
MODEL 4
REMARK VINA RESULT:      -6.5      3.887      7.370
REMARK  Name = 
REMARK  14 active torsions:
REMARK  status: ('A' for Active; 'I' for Inactive)
REMARK    1  A    between atoms: C_2  and  C_18
REMARK    2  A    between atoms: C_3  and  C_4
REMARK    3  A    between atoms: C_4  and  C_5
REMARK    4  A    between atoms: C_18  and  C_19
REMARK    5  A    between atoms: C_19  and  C_20
REMARK    6  A    between atoms: C_20  and  C_21
REMARK    7  A    between atoms: C_21  and  C_23
REMARK    8  A    between atoms: C_23  and  C_24
REMARK    9  A    between atoms: C_24  and  C_25
REMARK   10  A    between atoms: C_25  and  C_26
REMARK   11  A    between atoms: C_26  and  C_28
REMARK   12  A    between atoms: C_28  and  C_29
REMARK   13  A    between atoms: C_29  and  C_30
REMARK   14  A    between atoms: C_30  and  C_31
REMARK                            x       y       z     vdW  Elec       q    Type
REMARK                         _______ _______ _______ _____ _____    ______ ____
ROOT
ATOM      1  C   UNL     1      -8.193  13.746  67.237  0.00  0.00    +0.026 C 
ATOM      2  C   UNL     1      -8.684  15.053  67.784  0.00  0.00    -0.048 C 
ATOM      3  C   UNL     1      -9.725  15.496  67.108  0.00  0.00    -0.030 C 
ENDROOT
BRANCH   2   4
ATOM      4  C   UNL     1      -8.376  15.273  69.207  0.00  0.00    +0.022 C 
BRANCH   4   5
ATOM      5  C   UNL     1      -6.932  15.529  69.496  0.00  0.00    +0.004 C 
BRANCH   5   6
ATOM      6  C   UNL     1      -6.659  16.987  69.361  0.00  0.00    +0.000 C 
BRANCH   6   7
ATOM      7  C   UNL     1      -5.048  17.206  69.474  0.00  0.00    +0.000 C 
ATOM      8  C   UNL     1      -4.921  16.286  70.816  0.00  0.00    +0.000 C 
BRANCH   7   9
ATOM      9  C   UNL     1      -5.189  18.588  70.332  0.00  0.00    +0.000 C 
BRANCH   9  10
ATOM     10  C   UNL     1      -6.173  19.456  69.601  0.00  0.00    +0.000 C 
BRANCH  10  11
ATOM     11  C   UNL     1      -5.522  20.531  68.814  0.00  0.00    +0.000 C 
BRANCH  11  12
ATOM     12  C   UNL     1      -5.309  20.008  67.283  0.00  0.00    +0.000 C 
ATOM     13  C   UNL     1      -4.365  21.291  66.923  0.00  0.00    +0.000 C 
BRANCH  12  14
ATOM     14  C   UNL     1      -6.679  20.705  66.743  0.00  0.00    +0.000 C 
BRANCH  14  15
ATOM     15  C   UNL     1      -7.364  19.798  65.804  0.00  0.00    +0.000 C 
BRANCH  15  16
ATOM     16  C   UNL     1      -8.192  18.716  66.489  0.00  0.00    +0.000 C 
BRANCH  16  17
ATOM     17  C   UNL     1      -9.330  19.524  67.108  0.00  0.00    +0.000 C 
ATOM     18  C   UNL     1      -9.624  19.142  68.514  0.00  0.00    +0.000 C 
ATOM     19  C   UNL     1     -10.484  19.430  66.164  0.00  0.00    +0.000 C 
ENDBRANCH  16  17
ENDBRANCH  15  16
ENDBRANCH  14  15
ENDBRANCH  12  14
ENDBRANCH  11  12
ENDBRANCH  10  11
ENDBRANCH   9  10
ENDBRANCH   7   9
ENDBRANCH   6   7
ENDBRANCH   5   6
ENDBRANCH   4   5
ENDBRANCH   2   4
BRANCH   3  20
ATOM     20  C   UNL     1     -10.899  14.727  66.759  0.00  0.00    +0.055 C 
BRANCH  20  21
ATOM     21  C   UNL     1     -11.798  14.290  67.827  0.00  0.00    +0.020 C 
ATOM     22  C   UNL     1     -12.122  15.236  68.904  0.00  0.00    +0.192 C 
ATOM     23  O   UNL     1     -11.796  16.461  68.830  0.00  0.00    -0.287 OA
ATOM     24  C   UNL     1     -12.347  14.746  70.269  0.00  0.00    +0.042 A 
ATOM     25  C   UNL     1     -12.346  13.390  70.555  0.00  0.00    +0.042 A 
ATOM     26  C   UNL     1     -12.888  12.941  71.752  0.00  0.00    +0.003 A 
ATOM     27  C   UNL     1     -13.875  13.697  72.373  0.00  0.00    +0.000 A 
ATOM     28  C   UNL     1     -13.823  15.056  72.160  0.00  0.00    +0.000 A 
ATOM     29  C   UNL     1     -11.865  12.505  69.514  0.00  0.00    +0.192 C 
ATOM     30  O   UNL     1     -11.534  11.332  69.869  0.00  0.00    -0.287 OA
ATOM     31  C   UNL     1     -13.005  15.569  71.163  0.00  0.00    +0.003 A 
ATOM     32  C   UNL     1     -11.707  12.999  68.164  0.00  0.00    +0.017 C 
ATOM     33  C   UNL     1     -11.388  11.991  67.112  0.00  0.00    +0.034 C 
ENDBRANCH  20  21
ENDBRANCH   3  20
TORSDOF 14
ENDMDL
MODEL 5
REMARK VINA RESULT:      -6.5      3.042      8.299
REMARK  Name = 
REMARK  14 active torsions:
REMARK  status: ('A' for Active; 'I' for Inactive)
REMARK    1  A    between atoms: C_2  and  C_18
REMARK    2  A    between atoms: C_3  and  C_4
REMARK    3  A    between atoms: C_4  and  C_5
REMARK    4  A    between atoms: C_18  and  C_19
REMARK    5  A    between atoms: C_19  and  C_20
REMARK    6  A    between atoms: C_20  and  C_21
REMARK    7  A    between atoms: C_21  and  C_23
REMARK    8  A    between atoms: C_23  and  C_24
REMARK    9  A    between atoms: C_24  and  C_25
REMARK   10  A    between atoms: C_25  and  C_26
REMARK   11  A    between atoms: C_26  and  C_28
REMARK   12  A    between atoms: C_28  and  C_29
REMARK   13  A    between atoms: C_29  and  C_30
REMARK   14  A    between atoms: C_30  and  C_31
REMARK                            x       y       z     vdW  Elec       q    Type
REMARK                         _______ _______ _______ _____ _____    ______ ____
ROOT
ATOM      1  C   UNL     1     -12.264  13.579  66.045  0.00  0.00    +0.026 C 
ATOM      2  C   UNL     1     -11.549  13.794  67.345  0.00  0.00    -0.048 C 
ATOM      3  C   UNL     1     -10.242  13.702  67.196  0.00  0.00    -0.030 C 
ENDROOT
BRANCH   2   4
ATOM      4  C   UNL     1     -12.286  14.616  68.319  0.00  0.00    +0.022 C 
BRANCH   4   5
ATOM      5  C   UNL     1     -11.422  15.343  69.298  0.00  0.00    +0.004 C 
BRANCH   5   6
ATOM      6  C   UNL     1     -11.569  14.711  70.639  0.00  0.00    +0.000 C 
BRANCH   6   7
ATOM      7  C   UNL     1     -12.970  15.235  71.287  0.00  0.00    +0.000 C 
ATOM      8  C   UNL     1     -12.223  16.041  72.493  0.00  0.00    +0.000 C 
BRANCH   7   9
ATOM      9  C   UNL     1     -13.173  13.893  72.195  0.00  0.00    +0.000 C 
BRANCH   9  10
ATOM     10  C   UNL     1     -12.770  12.725  71.342  0.00  0.00    +0.000 C 
BRANCH  10  11
ATOM     11  C   UNL     1     -13.221  11.424  71.891  0.00  0.00    +0.000 C 
BRANCH  11  12
ATOM     12  C   UNL     1     -13.048  10.279  70.743  0.00  0.00    +0.000 C 
ATOM     13  C   UNL     1     -12.299   9.272  71.788  0.00  0.00    +0.000 C 
BRANCH  12  14
ATOM     14  C   UNL     1     -11.662  10.915  70.169  0.00  0.00    +0.000 C 
BRANCH  14  15
ATOM     15  C   UNL     1     -10.883   9.872  69.477  0.00  0.00    +0.000 C 
BRANCH  15  16
ATOM     16  C   UNL     1     -10.053  10.396  68.311  0.00  0.00    +0.000 C 
BRANCH  16  17
ATOM     17  C   UNL     1     -10.665   9.660  67.122  0.00  0.00    +0.000 C 
ATOM     18  C   UNL     1     -10.486   8.186  67.187  0.00  0.00    +0.000 C 
ATOM     19  C   UNL     1     -10.129  10.316  65.891  0.00  0.00    +0.000 C 
ENDBRANCH  16  17
ENDBRANCH  15  16
ENDBRANCH  14  15
ENDBRANCH  12  14
ENDBRANCH  11  12
ENDBRANCH  10  11
ENDBRANCH   9  10
ENDBRANCH   7   9
ENDBRANCH   6   7
ENDBRANCH   5   6
ENDBRANCH   4   5
ENDBRANCH   2   4
BRANCH   3  20
ATOM     20  C   UNL     1      -9.457  14.363  66.177  0.00  0.00    +0.055 C 
BRANCH  20  21
ATOM     21  C   UNL     1      -8.869  15.668  66.478  0.00  0.00    +0.020 C 
ATOM     22  C   UNL     1      -7.885  15.762  67.565  0.00  0.00    +0.192 C 
ATOM     23  O   UNL     1      -7.402  14.724  68.113  0.00  0.00    -0.287 OA
ATOM     24  C   UNL     1      -7.812  16.976  68.387  0.00  0.00    +0.042 A 
ATOM     25  C   UNL     1      -8.598  18.082  68.106  0.00  0.00    +0.042 A 
ATOM     26  C   UNL     1      -8.276  19.311  68.666  0.00  0.00    +0.003 A 
ATOM     27  C   UNL     1      -6.957  19.572  69.016  0.00  0.00    +0.000 A 
ATOM     28  C   UNL     1      -6.200  18.482  69.380  0.00  0.00    +0.000 A 
ATOM     29  C   UNL     1      -9.662  17.897  67.142  0.00  0.00    +0.192 C 
ATOM     30  O   UNL     1     -10.584  18.769  67.133  0.00  0.00    -0.287 OA
ATOM     31  C   UNL     1      -6.668  17.199  69.130  0.00  0.00    +0.003 A 
ATOM     32  C   UNL     1      -9.678  16.718  66.303  0.00  0.00    +0.017 C 
ATOM     33  C   UNL     1     -10.693  16.684  65.210  0.00  0.00    +0.034 C 
ENDBRANCH  20  21
ENDBRANCH   3  20
TORSDOF 14
ENDMDL
MODEL 6
REMARK VINA RESULT:      -6.5      4.774      8.407
REMARK  Name = 
REMARK  14 active torsions:
REMARK  status: ('A' for Active; 'I' for Inactive)
REMARK    1  A    between atoms: C_2  and  C_18
REMARK    2  A    between atoms: C_3  and  C_4
REMARK    3  A    between atoms: C_4  and  C_5
REMARK    4  A    between atoms: C_18  and  C_19
REMARK    5  A    between atoms: C_19  and  C_20
REMARK    6  A    between atoms: C_20  and  C_21
REMARK    7  A    between atoms: C_21  and  C_23
REMARK    8  A    between atoms: C_23  and  C_24
REMARK    9  A    between atoms: C_24  and  C_25
REMARK   10  A    between atoms: C_25  and  C_26
REMARK   11  A    between atoms: C_26  and  C_28
REMARK   12  A    between atoms: C_28  and  C_29
REMARK   13  A    between atoms: C_29  and  C_30
REMARK   14  A    between atoms: C_30  and  C_31
REMARK                            x       y       z     vdW  Elec       q    Type
REMARK                         _______ _______ _______ _____ _____    ______ ____
ROOT
ATOM      1  C   UNL     1     -10.242  20.410  67.355  0.00  0.00    +0.026 C 
ATOM      2  C   UNL     1      -9.056  19.492  67.339  0.00  0.00    -0.048 C 
ATOM      3  C   UNL     1      -9.260  18.431  68.094  0.00  0.00    -0.030 C 
ENDROOT
BRANCH   2   4
ATOM      4  C   UNL     1      -8.228  19.586  66.125  0.00  0.00    +0.022 C 
BRANCH   4   5
ATOM      5  C   UNL     1      -7.363  18.394  65.871  0.00  0.00    +0.004 C 
BRANCH   5   6
ATOM      6  C   UNL     1      -6.107  18.837  65.203  0.00  0.00    +0.000 C 
BRANCH   6   7
ATOM      7  C   UNL     1      -5.955  20.443  65.439  0.00  0.00    +0.000 C 
ATOM      8  C   UNL     1      -5.608  20.737  63.872  0.00  0.00    +0.000 C 
BRANCH   7   9
ATOM      9  C   UNL     1      -4.380  20.339  65.857  0.00  0.00    +0.000 C 
BRANCH   9  10
ATOM     10  C   UNL     1      -4.245  20.984  67.206  0.00  0.00    +0.000 C 
BRANCH  10  11
ATOM     11  C   UNL     1      -5.522  21.029  67.958  0.00  0.00    +0.000 C 
BRANCH  11  12
ATOM     12  C   UNL     1      -5.201  20.887  69.551  0.00  0.00    +0.000 C 
ATOM     13  C   UNL     1      -3.877  19.978  69.255  0.00  0.00    +0.000 C 
BRANCH  12  14
ATOM     14  C   UNL     1      -6.191  19.608  69.743  0.00  0.00    +0.000 C 
BRANCH  14  15
ATOM     15  C   UNL     1      -5.601  18.420  69.098  0.00  0.00    +0.000 C 
BRANCH  15  16
ATOM     16  C   UNL     1      -6.272  17.109  69.494  0.00  0.00    +0.000 C 
BRANCH  16  17
ATOM     17  C   UNL     1      -5.610  16.109  68.549  0.00  0.00    +0.000 C 
ATOM     18  C   UNL     1      -4.544  16.712  67.708  0.00  0.00    +0.000 C 
ATOM     19  C   UNL     1      -6.713  15.435  67.799  0.00  0.00    +0.000 C 
ENDBRANCH  16  17
ENDBRANCH  15  16
ENDBRANCH  14  15
ENDBRANCH  12  14
ENDBRANCH  11  12
ENDBRANCH  10  11
ENDBRANCH   9  10
ENDBRANCH   7   9
ENDBRANCH   6   7
ENDBRANCH   5   6
ENDBRANCH   4   5
ENDBRANCH   2   4
BRANCH   3  20
ATOM     20  C   UNL     1     -10.435  17.590  68.073  0.00  0.00    +0.055 C 
BRANCH  20  21
ATOM     21  C   UNL     1     -10.291  16.187  67.686  0.00  0.00    +0.020 C 
ATOM     22  C   UNL     1     -10.422  15.833  66.265  0.00  0.00    +0.192 C 
ATOM     23  O   UNL     1     -10.467  16.724  65.362  0.00  0.00    -0.287 OA
ATOM     24  C   UNL     1     -11.008  14.543  65.880  0.00  0.00    +0.042 A 
ATOM     25  C   UNL     1     -11.368  13.604  66.834  0.00  0.00    +0.042 A 
ATOM     26  C   UNL     1     -11.593  12.289  66.449  0.00  0.00    +0.003 A 
ATOM     27  C   UNL     1     -10.959  11.797  65.315  0.00  0.00    +0.000 A 
ATOM     28  C   UNL     1     -10.682  12.716  64.328  0.00  0.00    +0.000 A 
ATOM     29  C   UNL     1     -11.379  14.047  68.212  0.00  0.00    +0.192 C 
ATOM     30  O   UNL     1     -12.023  13.330  69.038  0.00  0.00    -0.287 OA
ATOM     31  C   UNL     1     -10.781  14.074  64.600  0.00  0.00    +0.003 A 
ATOM     32  C   UNL     1     -10.743  15.295  68.574  0.00  0.00    +0.017 C 
ATOM     33  C   UNL     1     -10.631  15.596  70.031  0.00  0.00    +0.034 C 
ENDBRANCH  20  21
ENDBRANCH   3  20
TORSDOF 14
ENDMDL
MODEL 7
REMARK VINA RESULT:      -6.5      4.044      8.131
REMARK  Name = 
REMARK  14 active torsions:
REMARK  status: ('A' for Active; 'I' for Inactive)
REMARK    1  A    between atoms: C_2  and  C_18
REMARK    2  A    between atoms: C_3  and  C_4
REMARK    3  A    between atoms: C_4  and  C_5
REMARK    4  A    between atoms: C_18  and  C_19
REMARK    5  A    between atoms: C_19  and  C_20
REMARK    6  A    between atoms: C_20  and  C_21
REMARK    7  A    between atoms: C_21  and  C_23
REMARK    8  A    between atoms: C_23  and  C_24
REMARK    9  A    between atoms: C_24  and  C_25
REMARK   10  A    between atoms: C_25  and  C_26
REMARK   11  A    between atoms: C_26  and  C_28
REMARK   12  A    between atoms: C_28  and  C_29
REMARK   13  A    between atoms: C_29  and  C_30
REMARK   14  A    between atoms: C_30  and  C_31
REMARK                            x       y       z     vdW  Elec       q    Type
REMARK                         _______ _______ _______ _____ _____    ______ ____
ROOT
ATOM      1  C   UNL     1     -10.185  20.081  66.649  0.00  0.00    +0.026 C 
ATOM      2  C   UNL     1      -9.031  19.267  67.154  0.00  0.00    -0.048 C 
ATOM      3  C   UNL     1      -9.405  18.448  68.116  0.00  0.00    -0.030 C 
ENDROOT
BRANCH   2   4
ATOM      4  C   UNL     1      -7.949  19.069  66.175  0.00  0.00    +0.022 C 
BRANCH   4   5
ATOM      5  C   UNL     1      -6.884  20.117  66.207  0.00  0.00    +0.004 C 
BRANCH   5   6
ATOM      6  C   UNL     1      -5.818  19.699  67.160  0.00  0.00    +0.000 C 
BRANCH   6   7
ATOM      7  C   UNL     1      -5.721  20.832  68.328  0.00  0.00    +0.000 C 
ATOM      8  C   UNL     1      -4.145  20.530  68.624  0.00  0.00    +0.000 C 
BRANCH   7   9
ATOM      9  C   UNL     1      -6.224  19.815  69.503  0.00  0.00    +0.000 C 
BRANCH   9  10
ATOM     10  C   UNL     1      -5.774  18.438  69.107  0.00  0.00    +0.000 C 
BRANCH  10  11
ATOM     11  C   UNL     1      -5.633  17.521  70.264  0.00  0.00    +0.000 C 
BRANCH  11  12
ATOM     12  C   UNL     1      -5.669  15.982  69.723  0.00  0.00    +0.000 C 
ATOM     13  C   UNL     1      -4.201  16.139  69.025  0.00  0.00    +0.000 C 
BRANCH  12  14
ATOM     14  C   UNL     1      -6.493  16.366  68.371  0.00  0.00    +0.000 C 
BRANCH  14  15
ATOM     15  C   UNL     1      -6.964  15.136  67.708  0.00  0.00    +0.000 C 
BRANCH  15  16
ATOM     16  C   UNL     1      -7.332  14.018  68.676  0.00  0.00    +0.000 C 
BRANCH  16  17
ATOM     17  C   UNL     1      -7.596  12.847  67.732  0.00  0.00    +0.000 C 
ATOM     18  C   UNL     1      -8.430  11.778  68.341  0.00  0.00    +0.000 C 
ATOM     19  C   UNL     1      -6.265  12.406  67.216  0.00  0.00    +0.000 C 
ENDBRANCH  16  17
ENDBRANCH  15  16
ENDBRANCH  14  15
ENDBRANCH  12  14
ENDBRANCH  11  12
ENDBRANCH  10  11
ENDBRANCH   9  10
ENDBRANCH   7   9
ENDBRANCH   6   7
ENDBRANCH   5   6
ENDBRANCH   4   5
ENDBRANCH   2   4
BRANCH   3  20
ATOM     20  C   UNL     1     -10.549  17.565  68.080  0.00  0.00    +0.055 C 
BRANCH  20  21
ATOM     21  C   UNL     1     -10.346  16.163  67.719  0.00  0.00    +0.020 C 
ATOM     22  C   UNL     1     -10.414  15.785  66.301  0.00  0.00    +0.192 C 
ATOM     23  O   UNL     1     -10.456  16.660  65.383  0.00  0.00    -0.287 OA
ATOM     24  C   UNL     1     -10.944  14.471  65.916  0.00  0.00    +0.042 A 
ATOM     25  C   UNL     1     -11.307  13.534  66.870  0.00  0.00    +0.042 A 
ATOM     26  C   UNL     1     -11.476  12.207  66.498  0.00  0.00    +0.003 A 
ATOM     27  C   UNL     1     -10.786  11.720  65.394  0.00  0.00    +0.000 A 
ATOM     28  C   UNL     1     -10.504  12.634  64.404  0.00  0.00    +0.000 A 
ATOM     29  C   UNL     1     -11.381  13.996  68.240  0.00  0.00    +0.192 C 
ATOM     30  O   UNL     1     -12.031  13.270  69.054  0.00  0.00    -0.287 OA
ATOM     31  C   UNL     1     -10.657  13.991  64.651  0.00  0.00    +0.003 A 
ATOM     32  C   UNL     1     -10.799  15.269  68.606  0.00  0.00    +0.017 C 
ATOM     33  C   UNL     1     -10.749  15.594  70.060  0.00  0.00    +0.034 C 
ENDBRANCH  20  21
ENDBRANCH   3  20
TORSDOF 14
ENDMDL
MODEL 8
REMARK VINA RESULT:      -6.4      1.522      2.544
REMARK  Name = 
REMARK  14 active torsions:
REMARK  status: ('A' for Active; 'I' for Inactive)
REMARK    1  A    between atoms: C_2  and  C_18
REMARK    2  A    between atoms: C_3  and  C_4
REMARK    3  A    between atoms: C_4  and  C_5
REMARK    4  A    between atoms: C_18  and  C_19
REMARK    5  A    between atoms: C_19  and  C_20
REMARK    6  A    between atoms: C_20  and  C_21
REMARK    7  A    between atoms: C_21  and  C_23
REMARK    8  A    between atoms: C_23  and  C_24
REMARK    9  A    between atoms: C_24  and  C_25
REMARK   10  A    between atoms: C_25  and  C_26
REMARK   11  A    between atoms: C_26  and  C_28
REMARK   12  A    between atoms: C_28  and  C_29
REMARK   13  A    between atoms: C_29  and  C_30
REMARK   14  A    between atoms: C_30  and  C_31
REMARK                            x       y       z     vdW  Elec       q    Type
REMARK                         _______ _______ _______ _____ _____    ______ ____
ROOT
ATOM      1  C   UNL     1      -7.615   9.670  65.832  0.00  0.00    +0.026 C 
ATOM      2  C   UNL     1      -8.925   9.034  65.472  0.00  0.00    -0.048 C 
ATOM      3  C   UNL     1      -9.183   7.997  66.243  0.00  0.00    -0.030 C 
ENDROOT
BRANCH   2   4
ATOM      4  C   UNL     1      -9.892   9.945  64.838  0.00  0.00    +0.022 C 
BRANCH   4   5
ATOM      5  C   UNL     1      -9.311  10.828  63.782  0.00  0.00    +0.004 C 
BRANCH   5   6
ATOM      6  C   UNL     1     -10.095  12.095  63.721  0.00  0.00    +0.000 C 
BRANCH   6   7
ATOM      7  C   UNL     1     -11.385  11.931  64.703  0.00  0.00    +0.000 C 
ATOM      8  C   UNL     1     -12.454  12.218  63.505  0.00  0.00    +0.000 C 
BRANCH   7   9
ATOM      9  C   UNL     1     -11.360  13.496  65.170  0.00  0.00    +0.000 C 
BRANCH   9  10
ATOM     10  C   UNL     1     -10.120  13.684  65.996  0.00  0.00    +0.000 C 
BRANCH  10  11
ATOM     11  C   UNL     1     -10.407  13.865  67.439  0.00  0.00    +0.000 C 
BRANCH  11  12
ATOM     12  C   UNL     1     -11.737  14.796  67.599  0.00  0.00    +0.000 C 
ATOM     13  C   UNL     1     -10.867  16.016  68.248  0.00  0.00    +0.000 C 
BRANCH  12  14
ATOM     14  C   UNL     1     -12.142  14.151  69.039  0.00  0.00    +0.000 C 
BRANCH  14  15
ATOM     15  C   UNL     1     -11.772  15.080  70.123  0.00  0.00    +0.000 C 
BRANCH  15  16
ATOM     16  C   UNL     1     -12.109  14.563  71.517  0.00  0.00    +0.000 C 
BRANCH  16  17
ATOM     17  C   UNL     1     -13.118  15.598  72.009  0.00  0.00    +0.000 C 
ATOM     18  C   UNL     1     -12.942  15.956  73.441  0.00  0.00    +0.000 C 
ATOM     19  C   UNL     1     -14.472  15.085  71.640  0.00  0.00    +0.000 C 
ENDBRANCH  16  17
ENDBRANCH  15  16
ENDBRANCH  14  15
ENDBRANCH  12  14
ENDBRANCH  11  12
ENDBRANCH  10  11
ENDBRANCH   9  10
ENDBRANCH   7   9
ENDBRANCH   6   7
ENDBRANCH   5   6
ENDBRANCH   4   5
ENDBRANCH   2   4
BRANCH   3  20
ATOM     20  C   UNL     1      -9.091   7.970  67.686  0.00  0.00    +0.055 C 
BRANCH  20  21
ATOM     21  C   UNL     1     -10.307   8.174  68.473  0.00  0.00    +0.020 C 
ATOM     22  C   UNL     1     -10.559   9.505  69.044  0.00  0.00    +0.192 C 
ATOM     23  O   UNL     1      -9.856  10.510  68.719  0.00  0.00    -0.287 OA
ATOM     24  C   UNL     1     -11.243   9.630  70.338  0.00  0.00    +0.042 A 
ATOM     25  C   UNL     1     -11.737   8.519  71.001  0.00  0.00    +0.042 A 
ATOM     26  C   UNL     1     -12.659   8.686  72.026  0.00  0.00    +0.003 A 
ATOM     27  C   UNL     1     -13.474   9.811  72.026  0.00  0.00    +0.000 A 
ATOM     28  C   UNL     1     -12.947  10.943  71.445  0.00  0.00    +0.000 A 
ATOM     29  C   UNL     1     -11.330   7.224  70.495  0.00  0.00    +0.192 C 
ATOM     30  O   UNL     1     -11.480   6.234  71.274  0.00  0.00    -0.287 OA
ATOM     31  C   UNL     1     -11.798  10.852  70.672  0.00  0.00    +0.003 A 
ATOM     32  C   UNL     1     -10.711   7.121  69.192  0.00  0.00    +0.017 C 
ATOM     33  C   UNL     1     -10.489   5.746  68.659  0.00  0.00    +0.034 C 
ENDBRANCH  20  21
ENDBRANCH   3  20
TORSDOF 14
ENDMDL
MODEL 9
REMARK VINA RESULT:      -6.3      3.279      6.817
REMARK  Name = 
REMARK  14 active torsions:
REMARK  status: ('A' for Active; 'I' for Inactive)
REMARK    1  A    between atoms: C_2  and  C_18
REMARK    2  A    between atoms: C_3  and  C_4
REMARK    3  A    between atoms: C_4  and  C_5
REMARK    4  A    between atoms: C_18  and  C_19
REMARK    5  A    between atoms: C_19  and  C_20
REMARK    6  A    between atoms: C_20  and  C_21
REMARK    7  A    between atoms: C_21  and  C_23
REMARK    8  A    between atoms: C_23  and  C_24
REMARK    9  A    between atoms: C_24  and  C_25
REMARK   10  A    between atoms: C_25  and  C_26
REMARK   11  A    between atoms: C_26  and  C_28
REMARK   12  A    between atoms: C_28  and  C_29
REMARK   13  A    between atoms: C_29  and  C_30
REMARK   14  A    between atoms: C_30  and  C_31
REMARK                            x       y       z     vdW  Elec       q    Type
REMARK                         _______ _______ _______ _____ _____    ______ ____
ROOT
ATOM      1  C   UNL     1     -10.523  17.504  68.340  0.00  0.00    +0.026 C 
ATOM      2  C   UNL     1     -10.154  17.523  66.887  0.00  0.00    -0.048 C 
ATOM      3  C   UNL     1     -10.069  16.302  66.396  0.00  0.00    -0.030 C 
ENDROOT
BRANCH   2   4
ATOM      4  C   UNL     1     -10.539  18.752  66.174  0.00  0.00    +0.022 C 
BRANCH   4   5
ATOM      5  C   UNL     1      -9.734  19.957  66.537  0.00  0.00    +0.004 C 
BRANCH   5   6
ATOM      6  C   UNL     1      -8.292  19.670  66.297  0.00  0.00    +0.000 C 
BRANCH   6   7
ATOM      7  C   UNL     1      -7.434  20.400  67.475  0.00  0.00    +0.000 C 
ATOM      8  C   UNL     1      -6.048  20.372  66.616  0.00  0.00    +0.000 C 
BRANCH   7   9
ATOM      9  C   UNL     1      -7.090  18.999  68.238  0.00  0.00    +0.000 C 
BRANCH   9  10
ATOM     10  C   UNL     1      -6.441  18.100  67.224  0.00  0.00    +0.000 C 
BRANCH  10  11
ATOM     11  C   UNL     1      -6.527  16.664  67.584  0.00  0.00    +0.000 C 
BRANCH  11  12
ATOM     12  C   UNL     1      -6.949  16.539  69.155  0.00  0.00    +0.000 C 
ATOM     13  C   UNL     1      -5.518  15.849  69.536  0.00  0.00    +0.000 C 
BRANCH  12  14
ATOM     14  C   UNL     1      -7.719  15.120  68.943  0.00  0.00    +0.000 C 
BRANCH  14  15
ATOM     15  C   UNL     1      -6.765  14.100  68.470  0.00  0.00    +0.000 C 
BRANCH  15  16
ATOM     16  C   UNL     1      -7.320  13.203  67.369  0.00  0.00    +0.000 C 
BRANCH  16  17
ATOM     17  C   UNL     1      -6.804  11.827  67.782  0.00  0.00    +0.000 C 
ATOM     18  C   UNL     1      -6.412  10.975  66.630  0.00  0.00    +0.000 C 
ATOM     19  C   UNL     1      -7.835  11.239  68.691  0.00  0.00    +0.000 C 
ENDBRANCH  16  17
ENDBRANCH  15  16
ENDBRANCH  14  15
ENDBRANCH  12  14
ENDBRANCH  11  12
ENDBRANCH  10  11
ENDBRANCH   9  10
ENDBRANCH   7   9
ENDBRANCH   6   7
ENDBRANCH   5   6
ENDBRANCH   4   5
ENDBRANCH   2   4
BRANCH   3  20
ATOM     20  C   UNL     1     -11.051  15.253  66.560  0.00  0.00    +0.055 C 
BRANCH  20  21
ATOM     21  C   UNL     1     -10.588  13.887  66.802  0.00  0.00    +0.020 C 
ATOM     22  C   UNL     1     -10.260  13.041  65.645  0.00  0.00    +0.192 C 
ATOM     23  O   UNL     1     -10.189  13.521  64.473  0.00  0.00    -0.287 OA
ATOM     24  C   UNL     1     -10.509  11.595  65.699  0.00  0.00    +0.042 A 
ATOM     25  C   UNL     1     -10.971  10.988  66.856  0.00  0.00    +0.042 A 
ATOM     26  C   UNL     1     -10.873   9.609  66.992  0.00  0.00    +0.003 A 
ATOM     27  C   UNL     1      -9.880   8.929  66.299  0.00  0.00    +0.000 A 
ATOM     28  C   UNL     1      -9.483   9.487  65.104  0.00  0.00    +0.000 A 
ATOM     29  C   UNL     1     -11.435  11.864  67.911  0.00  0.00    +0.192 C 
ATOM     30  O   UNL     1     -12.165  11.342  68.808  0.00  0.00    -0.287 OA
ATOM     31  C   UNL     1      -9.864  10.783  64.785  0.00  0.00    +0.003 A 
ATOM     32  C   UNL     1     -11.126  13.277  67.864  0.00  0.00    +0.017 C 
ATOM     33  C   UNL     1     -11.474  14.082  69.070  0.00  0.00    +0.034 C 
ENDBRANCH  20  21
ENDBRANCH   3  20
TORSDOF 14
ENDMDL
