MODEL 1
REMARK VINA RESULT:      -5.6      0.000      0.000
REMARK  Name = 
REMARK  9 active torsions:
REMARK  status: ('A' for Active; 'I' for Inactive)
REMARK    1  A    between atoms: O_2  and  C_3
REMARK    2  A    between atoms: C_3  and  C_4
REMARK    3  A    between atoms: C_4  and  C_5
REMARK    4  A    between atoms: C_8  and  O_9
REMARK    5  A    between atoms: O_9  and  C_10
REMARK    6  A    between atoms: C_10  and  C_11
REMARK    7  A    between atoms: C_11  and  C_13
REMARK    8  A    between atoms: C_13  and  N_14
REMARK    9  A    between atoms: N_14  and  C_15
REMARK                            x       y       z     vdW  Elec       q    Type
REMARK                         _______ _______ _______ _____ _____    ______ ____
ROOT
ATOM      1  C   UNL     1     -12.571  14.528  71.163  0.00  0.00    -0.019 A 
ATOM      2  C   UNL     1     -12.205  13.335  70.552  0.00  0.00    -0.001 A 
ATOM      3  C   UNL     1     -11.821  13.345  69.221  0.00  0.00    +0.037 A 
ATOM      4  C   UNL     1     -11.788  14.517  68.489  0.00  0.00    +0.139 A 
ATOM      5  C   UNL     1     -11.889  15.728  69.162  0.00  0.00    +0.037 A 
ATOM      6  C   UNL     1     -12.186  15.687  70.519  0.00  0.00    -0.001 A 
ENDROOT
BRANCH   4   7
ATOM      7  O   UNL     1     -11.972  14.488  67.127  0.00  0.00    -0.473 OA
BRANCH   7   8
ATOM      8  C   UNL     1     -11.208  13.705  66.238  0.00  0.00    +0.240 C 
BRANCH   8   9
ATOM      9  C   UNL     1     -12.324  12.771  65.439  0.00  0.00    +0.213 C 
ATOM     10  O   UNL     1     -13.193  13.992  65.136  0.00  0.00    -0.218 OA
BRANCH   9  11
ATOM     11  C   UNL     1     -11.511  12.931  64.001  0.00  0.00    +0.125 C 
BRANCH  11  12
ATOM     12  N   UNL     1     -10.257  12.239  64.269  0.00  0.00    -0.217 NA
BRANCH  12  13
ATOM     13  C   UNL     1     -10.393  10.830  63.908  0.00  0.00    +0.073 C 
ATOM     14  C   UNL     1      -9.795  10.015  65.048  0.00  0.00    +0.019 C 
ATOM     15  C   UNL     1      -9.529  10.639  62.668  0.00  0.00    +0.019 C 
ENDBRANCH  12  13
ENDBRANCH  11  12
ENDBRANCH   9  11
ENDBRANCH   8   9
ENDBRANCH   7   8
ENDBRANCH   4   7
BRANCH   1  16
ATOM     16  C   UNL     1     -13.643  14.580  72.205  0.00  0.00    +0.058 C 
BRANCH  16  17
ATOM     17  C   UNL     1     -13.435  15.773  73.099  0.00  0.00    +0.147 C 
BRANCH  17  19
ATOM     18  C   UNL     1     -12.456  15.486  74.332  0.00  0.00    +0.174 C 
ATOM     19  O   UNL     1     -12.602  15.390  74.159  0.00  0.00    -0.351 OA
ENDBRANCH  17  19
ENDBRANCH  16  17
ENDBRANCH   1  16
TORSDOF 9
ENDMDL
MODEL 2
REMARK VINA RESULT:      -5.5      2.053      3.143
REMARK  Name = 
REMARK  9 active torsions:
REMARK  status: ('A' for Active; 'I' for Inactive)
REMARK    1  A    between atoms: O_2  and  C_3
REMARK    2  A    between atoms: C_3  and  C_4
REMARK    3  A    between atoms: C_4  and  C_5
REMARK    4  A    between atoms: C_8  and  O_9
REMARK    5  A    between atoms: O_9  and  C_10
REMARK    6  A    between atoms: C_10  and  C_11
REMARK    7  A    between atoms: C_11  and  C_13
REMARK    8  A    between atoms: C_13  and  N_14
REMARK    9  A    between atoms: N_14  and  C_15
REMARK                            x       y       z     vdW  Elec       q    Type
REMARK                         _______ _______ _______ _____ _____    ______ ____
ROOT
ATOM      1  C   UNL     1     -12.453  13.582  70.935  0.00  0.00    -0.019 A 
ATOM      2  C   UNL     1     -12.133  12.316  70.461  0.00  0.00    -0.001 A 
ATOM      3  C   UNL     1     -11.778  12.159  69.131  0.00  0.00    +0.037 A 
ATOM      4  C   UNL     1     -11.729  13.237  68.267  0.00  0.00    +0.139 A 
ATOM      5  C   UNL     1     -11.782  14.520  68.795  0.00  0.00    +0.037 A 
ATOM      6  C   UNL     1     -12.051  14.647  70.152  0.00  0.00    -0.001 A 
ENDROOT
BRANCH   4   7
ATOM      7  O   UNL     1     -11.944  13.054  66.922  0.00  0.00    -0.473 OA
BRANCH   7   8
ATOM      8  C   UNL     1     -12.484  14.033  66.063  0.00  0.00    +0.240 C 
BRANCH   8   9
ATOM      9  C   UNL     1     -11.464  14.049  64.753  0.00  0.00    +0.213 C 
ATOM     10  O   UNL     1     -12.594  14.491  63.824  0.00  0.00    -0.218 OA
BRANCH   9  11
ATOM     11  C   UNL     1     -11.022  15.622  65.046  0.00  0.00    +0.125 C 
BRANCH  11  12
ATOM     12  N   UNL     1      -9.591  15.507  65.297  0.00  0.00    -0.217 NA
BRANCH  12  13
ATOM     13  C   UNL     1      -9.254  16.224  66.525  0.00  0.00    +0.073 C 
ATOM     14  C   UNL     1     -10.276  17.343  66.686  0.00  0.00    +0.019 C 
ATOM     15  C   UNL     1      -7.887  16.846  66.275  0.00  0.00    +0.019 C 
ENDBRANCH  12  13
ENDBRANCH  11  12
ENDBRANCH   9  11
ENDBRANCH   8   9
ENDBRANCH   7   8
ENDBRANCH   4   7
BRANCH   1  16
ATOM     16  C   UNL     1     -13.500  13.788  71.983  0.00  0.00    +0.058 C 
BRANCH  16  17
ATOM     17  C   UNL     1     -13.388  15.175  72.558  0.00  0.00    +0.147 C 
BRANCH  17  19
ATOM     18  C   UNL     1     -12.542  15.231  73.915  0.00  0.00    +0.174 C 
ATOM     19  O   UNL     1     -12.685  15.096  73.768  0.00  0.00    -0.351 OA
ENDBRANCH  17  19
ENDBRANCH  16  17
ENDBRANCH   1  16
TORSDOF 9
ENDMDL
MODEL 3
REMARK VINA RESULT:      -5.5      2.653      4.142
REMARK  Name = 
REMARK  9 active torsions:
REMARK  status: ('A' for Active; 'I' for Inactive)
REMARK    1  A    between atoms: O_2  and  C_3
REMARK    2  A    between atoms: C_3  and  C_4
REMARK    3  A    between atoms: C_4  and  C_5
REMARK    4  A    between atoms: C_8  and  O_9
REMARK    5  A    between atoms: O_9  and  C_10
REMARK    6  A    between atoms: C_10  and  C_11
REMARK    7  A    between atoms: C_11  and  C_13
REMARK    8  A    between atoms: C_13  and  N_14
REMARK    9  A    between atoms: N_14  and  C_15
REMARK                            x       y       z     vdW  Elec       q    Type
REMARK                         _______ _______ _______ _____ _____    ______ ____
ROOT
ATOM      1  C   UNL     1     -12.258  13.579  70.792  0.00  0.00    -0.019 A 
ATOM      2  C   UNL     1     -12.079  12.394  70.089  0.00  0.00    -0.001 A 
ATOM      3  C   UNL     1     -11.577  12.441  68.799  0.00  0.00    +0.037 A 
ATOM      4  C   UNL     1     -11.243  13.640  68.199  0.00  0.00    +0.139 A 
ATOM      5  C   UNL     1     -11.166  14.782  68.986  0.00  0.00    +0.037 A 
ATOM      6  C   UNL     1     -11.592  14.686  70.304  0.00  0.00    -0.001 A 
ENDROOT
BRANCH   4   7
ATOM      7  O   UNL     1     -11.300  13.769  66.831  0.00  0.00    -0.473 OA
BRANCH   7   8
ATOM      8  C   UNL     1     -11.586  14.974  66.158  0.00  0.00    +0.240 C 
BRANCH   8   9
ATOM      9  C   UNL     1     -10.385  15.111  65.020  0.00  0.00    +0.213 C 
ATOM     10  O   UNL     1     -11.127  16.243  64.310  0.00  0.00    -0.218 OA
BRANCH   9  11
ATOM     11  C   UNL     1      -9.541  16.188  65.961  0.00  0.00    +0.125 C 
BRANCH  11  12
ATOM     12  N   UNL     1     -10.293  17.423  65.779  0.00  0.00    -0.217 NA
BRANCH  12  13
ATOM     13  C   UNL     1      -9.730  18.465  66.634  0.00  0.00    +0.073 C 
ATOM     14  C   UNL     1     -10.228  18.201  68.050  0.00  0.00    +0.019 C 
ATOM     15  C   UNL     1     -10.335  19.773  66.141  0.00  0.00    +0.019 C 
ENDBRANCH  12  13
ENDBRANCH  11  12
ENDBRANCH   9  11
ENDBRANCH   8   9
ENDBRANCH   7   8
ENDBRANCH   4   7
BRANCH   1  16
ATOM     16  C   UNL     1     -13.391  13.760  71.751  0.00  0.00    +0.058 C 
BRANCH  16  17
ATOM     17  C   UNL     1     -13.949  15.154  71.633  0.00  0.00    +0.147 C 
BRANCH  17  19
ATOM     18  C   UNL     1     -13.658  15.884  73.027  0.00  0.00    +0.174 C 
ATOM     19  O   UNL     1     -13.827  15.785  72.879  0.00  0.00    -0.351 OA
ENDBRANCH  17  19
ENDBRANCH  16  17
ENDBRANCH   1  16
TORSDOF 9
ENDMDL
MODEL 4
REMARK VINA RESULT:      -5.4      1.996      2.916
REMARK  Name = 
REMARK  9 active torsions:
REMARK  status: ('A' for Active; 'I' for Inactive)
REMARK    1  A    between atoms: O_2  and  C_3
REMARK    2  A    between atoms: C_3  and  C_4
REMARK    3  A    between atoms: C_4  and  C_5
REMARK    4  A    between atoms: C_8  and  O_9
REMARK    5  A    between atoms: O_9  and  C_10
REMARK    6  A    between atoms: C_10  and  C_11
REMARK    7  A    between atoms: C_11  and  C_13
REMARK    8  A    between atoms: C_13  and  N_14
REMARK    9  A    between atoms: N_14  and  C_15
REMARK                            x       y       z     vdW  Elec       q    Type
REMARK                         _______ _______ _______ _____ _____    ______ ____
ROOT
ATOM      1  C   UNL     1     -13.518  15.010  72.045  0.00  0.00    -0.019 A 
ATOM      2  C   UNL     1     -13.016  15.350  70.795  0.00  0.00    -0.001 A 
ATOM      3  C   UNL     1     -12.470  14.362  69.992  0.00  0.00    +0.037 A 
ATOM      4  C   UNL     1     -12.420  13.044  70.405  0.00  0.00    +0.139 A 
ATOM      5  C   UNL     1     -13.156  12.664  71.520  0.00  0.00    +0.037 A 
ATOM      6  C   UNL     1     -13.770  13.669  72.258  0.00  0.00    -0.001 A 
ENDROOT
BRANCH   4   7
ATOM      7  O   UNL     1     -11.435  12.208  69.934  0.00  0.00    -0.473 OA
BRANCH   7   8
ATOM      8  C   UNL     1     -11.456  11.591  68.666  0.00  0.00    +0.240 C 
BRANCH   8   9
ATOM      9  C   UNL     1     -10.252  12.349  67.812  0.00  0.00    +0.213 C 
ATOM     10  O   UNL     1     -10.176  11.195  66.812  0.00  0.00    -0.218 OA
BRANCH   9  11
ATOM     11  C   UNL     1     -11.353  13.159  66.871  0.00  0.00    +0.125 C 
BRANCH  11  12
ATOM     12  N   UNL     1     -11.914  12.092  66.052  0.00  0.00    -0.217 NA
BRANCH  12  13
ATOM     13  C   UNL     1     -12.536  12.668  64.862  0.00  0.00    +0.073 C 
ATOM     14  C   UNL     1     -11.906  11.987  63.653  0.00  0.00    +0.019 C 
ATOM     15  C   UNL     1     -12.133  14.137  64.859  0.00  0.00    +0.019 C 
ENDBRANCH  12  13
ENDBRANCH  11  12
ENDBRANCH   9  11
ENDBRANCH   8   9
ENDBRANCH   7   8
ENDBRANCH   4   7
BRANCH   1  16
ATOM     16  C   UNL     1     -13.413  15.938  73.213  0.00  0.00    +0.058 C 
BRANCH  16  17
ATOM     17  C   UNL     1     -12.419  15.403  74.210  0.00  0.00    +0.147 C 
BRANCH  17  19
ATOM     18  C   UNL     1     -12.433  16.270  75.555  0.00  0.00    +0.174 C 
ATOM     19  O   UNL     1     -12.392  16.268  75.313  0.00  0.00    -0.351 OA
ENDBRANCH  17  19
ENDBRANCH  16  17
ENDBRANCH   1  16
TORSDOF 9
ENDMDL
MODEL 5
REMARK VINA RESULT:      -5.4      1.713      2.446
REMARK  Name = 
REMARK  9 active torsions:
REMARK  status: ('A' for Active; 'I' for Inactive)
REMARK    1  A    between atoms: O_2  and  C_3
REMARK    2  A    between atoms: C_3  and  C_4
REMARK    3  A    between atoms: C_4  and  C_5
REMARK    4  A    between atoms: C_8  and  O_9
REMARK    5  A    between atoms: O_9  and  C_10
REMARK    6  A    between atoms: C_10  and  C_11
REMARK    7  A    between atoms: C_11  and  C_13
REMARK    8  A    between atoms: C_13  and  N_14
REMARK    9  A    between atoms: N_14  and  C_15
REMARK                            x       y       z     vdW  Elec       q    Type
REMARK                         _______ _______ _______ _____ _____    ______ ____
ROOT
ATOM      1  C   UNL     1     -12.236  14.382  71.621  0.00  0.00    -0.019 A 
ATOM      2  C   UNL     1     -12.453  13.503  70.567  0.00  0.00    -0.001 A 
ATOM      3  C   UNL     1     -12.000  13.838  69.301  0.00  0.00    +0.037 A 
ATOM      4  C   UNL     1     -11.332  15.024  69.065  0.00  0.00    +0.139 A 
ATOM      5  C   UNL     1     -10.882  15.765  70.151  0.00  0.00    +0.037 A 
ATOM      6  C   UNL     1     -11.277  15.355  71.418  0.00  0.00    -0.001 A 
ENDROOT
BRANCH   4   7
ATOM      7  O   UNL     1     -11.389  15.615  67.826  0.00  0.00    -0.473 OA
BRANCH   7   8
ATOM      8  C   UNL     1     -10.471  16.579  67.362  0.00  0.00    +0.240 C 
BRANCH   8   9
ATOM      9  C   UNL     1     -10.439  16.367  65.716  0.00  0.00    +0.213 C 
ATOM     10  O   UNL     1      -9.100  17.097  65.604  0.00  0.00    -0.218 OA
BRANCH   9  11
ATOM     11  C   UNL     1      -9.681  14.898  65.864  0.00  0.00    +0.125 C 
BRANCH  11  12
ATOM     12  N   UNL     1     -10.340  14.098  64.838  0.00  0.00    -0.217 NA
BRANCH  12  13
ATOM     13  C   UNL     1     -10.552  12.743  65.341  0.00  0.00    +0.073 C 
ATOM     14  C   UNL     1     -12.012  12.644  65.763  0.00  0.00    +0.019 C 
ATOM     15  C   UNL     1      -9.677  12.624  66.583  0.00  0.00    +0.019 C 
ENDBRANCH  12  13
ENDBRANCH  11  12
ENDBRANCH   9  11
ENDBRANCH   8   9
ENDBRANCH   7   8
ENDBRANCH   4   7
BRANCH   1  16
ATOM     16  C   UNL     1     -13.229  14.541  72.729  0.00  0.00    +0.058 C 
BRANCH  16  17
ATOM     17  C   UNL     1     -13.156  15.936  73.290  0.00  0.00    +0.147 C 
BRANCH  17  19
ATOM     18  C   UNL     1     -12.495  15.789  74.740  0.00  0.00    +0.174 C 
ATOM     19  O   UNL     1     -12.692  15.857  74.610  0.00  0.00    -0.351 OA
ENDBRANCH  17  19
ENDBRANCH  16  17
ENDBRANCH   1  16
TORSDOF 9
ENDMDL
MODEL 6
REMARK VINA RESULT:      -5.3      2.076      3.015
REMARK  Name = 
REMARK  9 active torsions:
REMARK  status: ('A' for Active; 'I' for Inactive)
REMARK    1  A    between atoms: O_2  and  C_3
REMARK    2  A    between atoms: C_3  and  C_4
REMARK    3  A    between atoms: C_4  and  C_5
REMARK    4  A    between atoms: C_8  and  O_9
REMARK    5  A    between atoms: O_9  and  C_10
REMARK    6  A    between atoms: C_10  and  C_11
REMARK    7  A    between atoms: C_11  and  C_13
REMARK    8  A    between atoms: C_13  and  N_14
REMARK    9  A    between atoms: N_14  and  C_15
REMARK                            x       y       z     vdW  Elec       q    Type
REMARK                         _______ _______ _______ _____ _____    ______ ____
ROOT
ATOM      1  C   UNL     1     -12.875  12.900  71.479  0.00  0.00    -0.019 A 
ATOM      2  C   UNL     1     -12.739  11.517  71.477  0.00  0.00    -0.001 A 
ATOM      3  C   UNL     1     -12.251  10.886  70.344  0.00  0.00    +0.037 A 
ATOM      4  C   UNL     1     -11.891  11.603  69.218  0.00  0.00    +0.139 A 
ATOM      5  C   UNL     1     -11.771  12.983  69.315  0.00  0.00    +0.037 A 
ATOM      6  C   UNL     1     -12.183  13.584  70.498  0.00  0.00    -0.001 A 
ENDROOT
BRANCH   4   7
ATOM      7  O   UNL     1     -11.961  11.020  67.976  0.00  0.00    -0.473 OA
BRANCH   7   8
ATOM      8  C   UNL     1     -10.977  10.163  67.443  0.00  0.00    +0.240 C 
BRANCH   8   9
ATOM      9  C   UNL     1      -9.794  11.183  66.882  0.00  0.00    +0.213 C 
ATOM     10  O   UNL     1      -8.841  10.013  66.636  0.00  0.00    -0.218 OA
BRANCH   9  11
ATOM     11  C   UNL     1     -10.378  11.099  65.331  0.00  0.00    +0.125 C 
BRANCH  11  12
ATOM     12  N   UNL     1     -10.604  12.501  65.002  0.00  0.00    -0.217 NA
BRANCH  12  13
ATOM     13  C   UNL     1     -12.035  12.731  64.818  0.00  0.00    +0.073 C 
ATOM     14  C   UNL     1     -12.424  12.096  63.489  0.00  0.00    +0.019 C 
ATOM     15  C   UNL     1     -12.196  14.241  64.700  0.00  0.00    +0.019 C 
ENDBRANCH  12  13
ENDBRANCH  11  12
ENDBRANCH   9  11
ENDBRANCH   8   9
ENDBRANCH   7   8
ENDBRANCH   4   7
BRANCH   1  16
ATOM     16  C   UNL     1     -13.990  13.579  72.208  0.00  0.00    +0.058 C 
BRANCH  16  17
ATOM     17  C   UNL     1     -14.055  15.031  71.815  0.00  0.00    +0.147 C 
BRANCH  17  19
ATOM     18  C   UNL     1     -13.587  15.952  73.036  0.00  0.00    +0.174 C 
ATOM     19  O   UNL     1     -13.763  15.807  72.944  0.00  0.00    -0.351 OA
ENDBRANCH  17  19
ENDBRANCH  16  17
ENDBRANCH   1  16
TORSDOF 9
ENDMDL
MODEL 7
REMARK VINA RESULT:      -5.3      4.938      8.321
REMARK  Name = 
REMARK  9 active torsions:
REMARK  status: ('A' for Active; 'I' for Inactive)
REMARK    1  A    between atoms: O_2  and  C_3
REMARK    2  A    between atoms: C_3  and  C_4
REMARK    3  A    between atoms: C_4  and  C_5
REMARK    4  A    between atoms: C_8  and  O_9
REMARK    5  A    between atoms: O_9  and  C_10
REMARK    6  A    between atoms: C_10  and  C_11
REMARK    7  A    between atoms: C_11  and  C_13
REMARK    8  A    between atoms: C_13  and  N_14
REMARK    9  A    between atoms: N_14  and  C_15
REMARK                            x       y       z     vdW  Elec       q    Type
REMARK                         _______ _______ _______ _____ _____    ______ ____
ROOT
ATOM      1  C   UNL     1      -8.284  20.094  67.090  0.00  0.00    -0.019 A 
ATOM      2  C   UNL     1      -9.611  20.208  66.694  0.00  0.00    -0.001 A 
ATOM      3  C   UNL     1     -10.563  19.379  67.266  0.00  0.00    +0.037 A 
ATOM      4  C   UNL     1     -10.221  18.446  68.226  0.00  0.00    +0.139 A 
ATOM      5  C   UNL     1      -8.963  18.517  68.810  0.00  0.00    +0.037 A 
ATOM      6  C   UNL     1      -8.055  19.423  68.275  0.00  0.00    -0.001 A 
ENDROOT
BRANCH   4   7
ATOM      7  O   UNL     1     -10.965  17.299  68.372  0.00  0.00    -0.473 OA
BRANCH   7   8
ATOM      8  C   UNL     1     -10.664  16.266  69.283  0.00  0.00    +0.240 C 
BRANCH   8   9
ATOM      9  C   UNL     1     -12.108  15.482  69.517  0.00  0.00    +0.213 C 
ATOM     10  O   UNL     1     -11.396  14.151  69.755  0.00  0.00    -0.218 OA
BRANCH   9  11
ATOM     11  C   UNL     1     -12.099  15.833  71.140  0.00  0.00    +0.125 C 
BRANCH  11  12
ATOM     12  N   UNL     1     -13.507  15.713  71.497  0.00  0.00    -0.217 NA
BRANCH  12  13
ATOM     13  C   UNL     1     -13.627  14.991  72.762  0.00  0.00    +0.073 C 
ATOM     14  C   UNL     1     -12.368  15.284  73.567  0.00  0.00    +0.019 C 
ATOM     15  C   UNL     1     -13.635  13.513  72.391  0.00  0.00    +0.019 C 
ENDBRANCH  12  13
ENDBRANCH  11  12
ENDBRANCH   9  11
ENDBRANCH   8   9
ENDBRANCH   7   8
ENDBRANCH   4   7
BRANCH   1  16
ATOM     16  C   UNL     1      -7.157  20.307  66.130  0.00  0.00    +0.058 C 
BRANCH  16  17
ATOM     17  C   UNL     1      -6.474  18.998  65.837  0.00  0.00    +0.147 C 
BRANCH  17  19
ATOM     18  C   UNL     1      -5.952  18.923  64.326  0.00  0.00    +0.174 C 
ATOM     19  O   UNL     1      -6.141  18.969  64.476  0.00  0.00    -0.351 OA
ENDBRANCH  17  19
ENDBRANCH  16  17
ENDBRANCH   1  16
TORSDOF 9
ENDMDL
MODEL 8
REMARK VINA RESULT:      -5.3      5.085      7.856
REMARK  Name = 
REMARK  9 active torsions:
REMARK  status: ('A' for Active; 'I' for Inactive)
REMARK    1  A    between atoms: O_2  and  C_3
REMARK    2  A    between atoms: C_3  and  C_4
REMARK    3  A    between atoms: C_4  and  C_5
REMARK    4  A    between atoms: C_8  and  O_9
REMARK    5  A    between atoms: O_9  and  C_10
REMARK    6  A    between atoms: C_10  and  C_11
REMARK    7  A    between atoms: C_11  and  C_13
REMARK    8  A    between atoms: C_13  and  N_14
REMARK    9  A    between atoms: N_14  and  C_15
REMARK                            x       y       z     vdW  Elec       q    Type
REMARK                         _______ _______ _______ _____ _____    ______ ____
ROOT
ATOM      1  C   UNL     1      -8.071  19.884  67.036  0.00  0.00    -0.019 A 
ATOM      2  C   UNL     1      -8.018  18.535  66.710  0.00  0.00    -0.001 A 
ATOM      3  C   UNL     1      -9.123  17.735  66.954  0.00  0.00    +0.037 A 
ATOM      4  C   UNL     1     -10.279  18.252  67.509  0.00  0.00    +0.139 A 
ATOM      5  C   UNL     1     -10.426  19.631  67.580  0.00  0.00    +0.037 A 
ATOM      6  C   UNL     1      -9.330  20.415  67.242  0.00  0.00    -0.001 A 
ENDROOT
BRANCH   4   7
ATOM      7  O   UNL     1     -11.109  17.448  68.253  0.00  0.00    -0.473 OA
BRANCH   7   8
ATOM      8  C   UNL     1     -10.661  16.439  69.130  0.00  0.00    +0.240 C 
BRANCH   8   9
ATOM      9  C   UNL     1     -11.981  15.455  69.343  0.00  0.00    +0.213 C 
ATOM     10  O   UNL     1     -11.088  14.236  69.577  0.00  0.00    -0.218 OA
BRANCH   9  11
ATOM     11  C   UNL     1     -12.036  15.788  70.969  0.00  0.00    +0.125 C 
BRANCH  11  12
ATOM     12  N   UNL     1     -12.299  14.478  71.550  0.00  0.00    -0.217 NA
BRANCH  12  13
ATOM     13  C   UNL     1     -13.385  14.587  72.522  0.00  0.00    +0.073 C 
ATOM     14  C   UNL     1     -14.656  14.899  71.742  0.00  0.00    +0.019 C 
ATOM     15  C   UNL     1     -13.039  15.789  73.391  0.00  0.00    +0.019 C 
ENDBRANCH  12  13
ENDBRANCH  11  12
ENDBRANCH   9  11
ENDBRANCH   8   9
ENDBRANCH   7   8
ENDBRANCH   4   7
BRANCH   1  16
ATOM     16  C   UNL     1      -6.868  20.621  67.531  0.00  0.00    +0.058 C 
BRANCH  16  17
ATOM     17  C   UNL     1      -6.475  20.113  68.892  0.00  0.00    +0.147 C 
BRANCH  17  19
ATOM     18  C   UNL     1      -5.204  20.958  69.374  0.00  0.00    +0.174 C 
ATOM     19  O   UNL     1      -5.448  20.927  69.388  0.00  0.00    -0.351 OA
ENDBRANCH  17  19
ENDBRANCH  16  17
ENDBRANCH   1  16
TORSDOF 9
ENDMDL
MODEL 9
REMARK VINA RESULT:      -5.3      4.440      7.103
REMARK  Name = 
REMARK  9 active torsions:
REMARK  status: ('A' for Active; 'I' for Inactive)
REMARK    1  A    between atoms: O_2  and  C_3
REMARK    2  A    between atoms: C_3  and  C_4
REMARK    3  A    between atoms: C_4  and  C_5
REMARK    4  A    between atoms: C_8  and  O_9
REMARK    5  A    between atoms: O_9  and  C_10
REMARK    6  A    between atoms: C_10  and  C_11
REMARK    7  A    between atoms: C_11  and  C_13
REMARK    8  A    between atoms: C_13  and  N_14
REMARK    9  A    between atoms: N_14  and  C_15
REMARK                            x       y       z     vdW  Elec       q    Type
REMARK                         _______ _______ _______ _____ _____    ______ ____
ROOT
ATOM      1  C   UNL     1     -12.151   9.257  71.489  0.00  0.00    -0.019 A 
ATOM      2  C   UNL     1     -12.932  10.366  71.789  0.00  0.00    -0.001 A 
ATOM      3  C   UNL     1     -12.761  11.533  71.061  0.00  0.00    +0.037 A 
ATOM      4  C   UNL     1     -11.835  11.614  70.038  0.00  0.00    +0.139 A 
ATOM      5  C   UNL     1     -11.257  10.443  69.565  0.00  0.00    +0.037 A 
ATOM      6  C   UNL     1     -11.518   9.269  70.261  0.00  0.00    -0.001 A 
ENDROOT
BRANCH   4   7
ATOM      7  O   UNL     1     -11.265  12.823  69.716  0.00  0.00    -0.473 OA
BRANCH   7   8
ATOM      8  C   UNL     1     -11.983  13.938  69.236  0.00  0.00    +0.240 C 
BRANCH   8   9
ATOM      9  C   UNL     1     -11.032  15.243  69.620  0.00  0.00    +0.213 C 
ATOM     10  O   UNL     1     -12.128  16.221  69.197  0.00  0.00    -0.218 OA
BRANCH   9  11
ATOM     11  C   UNL     1     -11.570  15.244  71.191  0.00  0.00    +0.125 C 
BRANCH  11  12
ATOM     12  N   UNL     1     -12.846  15.941  71.087  0.00  0.00    -0.217 NA
BRANCH  12  13
ATOM     13  C   UNL     1     -13.683  15.595  72.234  0.00  0.00    +0.073 C 
ATOM     14  C   UNL     1     -12.869  14.656  73.116  0.00  0.00    +0.019 C 
ATOM     15  C   UNL     1     -14.864  14.824  71.661  0.00  0.00    +0.019 C 
ENDBRANCH  12  13
ENDBRANCH  11  12
ENDBRANCH   9  11
ENDBRANCH   8   9
ENDBRANCH   7   8
ENDBRANCH   4   7
BRANCH   1  16
ATOM     16  C   UNL     1     -11.689   8.310  72.550  0.00  0.00    +0.058 C 
BRANCH  16  17
ATOM     17  C   UNL     1     -10.666   7.361  71.986  0.00  0.00    +0.147 C 
BRANCH  17  19
ATOM     18  C   UNL     1     -11.191   5.877  72.276  0.00  0.00    +0.174 C 
ATOM     19  O   UNL     1     -11.033   6.055  72.339  0.00  0.00    -0.351 OA
ENDBRANCH  17  19
ENDBRANCH  16  17
ENDBRANCH   1  16
TORSDOF 9
ENDMDL
