MODEL 1
REMARK VINA RESULT:      -6.1      0.000      0.000
REMARK  Name = 
REMARK  1 active torsions:
REMARK  status: ('A' for Active; 'I' for Inactive)
REMARK    1  A    between atoms: C_8  and  C_9
REMARK                            x       y       z     vdW  Elec       q    Type
REMARK                         _______ _______ _______ _____ _____    ______ ____
ROOT
ATOM      1  C   UNL     1     -11.731   9.856  70.851  0.00  0.00    +0.031 C 
ATOM      2  C   UNL     1     -11.919  11.029  69.964  0.00  0.00    -0.016 A 
ATOM      3  C   UNL     1     -12.142  12.265  70.545  0.00  0.00    +0.011 A 
ATOM      4  C   UNL     1     -11.827  13.453  69.895  0.00  0.00    +0.070 A 
ATOM      5  N   UNL     1     -11.706  13.340  68.549  0.00  0.00    -0.153 N 
ATOM      6  O   UNL     1     -11.514  14.470  67.813  0.00  0.00    -0.077 OA
ATOM      7  C   UNL     1     -11.817  12.163  67.911  0.00  0.00    +0.286 A 
ATOM      8  O   UNL     1     -12.062  12.163  66.666  0.00  0.00    -0.265 OA
ATOM      9  C   UNL     1     -11.761  10.958  68.600  0.00  0.00    +0.059 A 
ENDROOT
BRANCH   4  10
ATOM     10  C   UNL     1     -12.355  14.689  70.513  0.00  0.00    +0.041 C 
ATOM     11  C   UNL     1     -13.610  14.308  71.291  0.00  0.00    +0.006 C 
ATOM     12  C   UNL     1     -13.282  14.086  72.764  0.00  0.00    +0.000 C 
ATOM     13  C   UNL     1     -12.954  15.421  73.422  0.00  0.00    +0.000 C 
ATOM     14  C   UNL     1     -12.238  16.247  72.363  0.00  0.00    +0.000 C 
ATOM     15  C   UNL     1     -11.401  15.262  71.556  0.00  0.00    +0.006 C 
ENDBRANCH   4  10
TORSDOF 1
ENDMDL
MODEL 2
REMARK VINA RESULT:      -5.8      4.579      5.416
REMARK  Name = 
REMARK  1 active torsions:
REMARK  status: ('A' for Active; 'I' for Inactive)
REMARK    1  A    between atoms: C_8  and  C_9
REMARK                            x       y       z     vdW  Elec       q    Type
REMARK                         _______ _______ _______ _____ _____    ______ ____
ROOT
ATOM      1  C   UNL     1      -9.385  12.547  66.917  0.00  0.00    +0.031 C 
ATOM      2  C   UNL     1     -10.158  13.654  66.304  0.00  0.00    -0.016 A 
ATOM      3  C   UNL     1      -9.993  14.931  66.810  0.00  0.00    +0.011 A 
ATOM      4  C   UNL     1     -10.232  16.065  66.042  0.00  0.00    +0.070 A 
ATOM      5  N   UNL     1     -11.024  15.852  64.960  0.00  0.00    -0.153 N 
ATOM      6  O   UNL     1     -11.410  16.923  64.212  0.00  0.00    -0.077 OA
ATOM      7  C   UNL     1     -11.480  14.633  64.629  0.00  0.00    +0.286 A 
ATOM      8  O   UNL     1     -12.484  14.544  63.859  0.00  0.00    -0.265 OA
ATOM      9  C   UNL     1     -10.935  13.481  65.182  0.00  0.00    +0.059 A 
ENDROOT
BRANCH   4  10
ATOM     10  C   UNL     1     -10.273  17.348  66.777  0.00  0.00    +0.041 C 
ATOM     11  C   UNL     1      -9.962  17.045  68.238  0.00  0.00    +0.006 C 
ATOM     12  C   UNL     1      -8.485  17.282  68.533  0.00  0.00    +0.000 C 
ATOM     13  C   UNL     1      -8.190  18.778  68.501  0.00  0.00    +0.000 C 
ATOM     14  C   UNL     1      -9.089  19.360  67.420  0.00  0.00    +0.000 C 
ATOM     15  C   UNL     1      -9.171  18.301  66.326  0.00  0.00    +0.006 C 
ENDBRANCH   4  10
TORSDOF 1
ENDMDL
MODEL 3
REMARK VINA RESULT:      -5.8      5.213      7.086
REMARK  Name = 
REMARK  1 active torsions:
REMARK  status: ('A' for Active; 'I' for Inactive)
REMARK    1  A    between atoms: C_8  and  C_9
REMARK                            x       y       z     vdW  Elec       q    Type
REMARK                         _______ _______ _______ _____ _____    ______ ____
ROOT
ATOM      1  C   UNL     1      -8.190  15.551  67.205  0.00  0.00    +0.031 C 
ATOM      2  C   UNL     1      -9.287  15.235  66.259  0.00  0.00    -0.016 A 
ATOM      3  C   UNL     1      -9.679  13.916  66.120  0.00  0.00    +0.011 A 
ATOM      4  C   UNL     1     -10.957  13.566  65.699  0.00  0.00    +0.070 A 
ATOM      5  N   UNL     1     -11.618  14.551  65.040  0.00  0.00    -0.153 N 
ATOM      6  O   UNL     1     -12.830  14.268  64.487  0.00  0.00    -0.077 OA
ATOM      7  C   UNL     1     -11.101  15.779  64.871  0.00  0.00    +0.286 A 
ATOM      8  O   UNL     1     -11.576  16.523  63.959  0.00  0.00    -0.265 OA
ATOM      9  C   UNL     1     -10.006  16.211  65.608  0.00  0.00    +0.059 A 
ENDROOT
BRANCH   4  10
ATOM     10  C   UNL     1     -11.156  12.144  65.345  0.00  0.00    +0.041 C 
ATOM     11  C   UNL     1     -11.209  12.058  63.824  0.00  0.00    +0.006 C 
ATOM     12  C   UNL     1      -9.842  11.682  63.260  0.00  0.00    +0.000 C 
ATOM     13  C   UNL     1      -9.529  10.229  63.600  0.00  0.00    +0.000 C 
ATOM     14  C   UNL     1     -10.134   9.980  64.974  0.00  0.00    +0.000 C 
ATOM     15  C   UNL     1      -9.966  11.281  65.751  0.00  0.00    +0.006 C 
ENDBRANCH   4  10
TORSDOF 1
ENDMDL
MODEL 4
REMARK VINA RESULT:      -5.6      3.485      4.812
REMARK  Name = 
REMARK  1 active torsions:
REMARK  status: ('A' for Active; 'I' for Inactive)
REMARK    1  A    between atoms: C_8  and  C_9
REMARK                            x       y       z     vdW  Elec       q    Type
REMARK                         _______ _______ _______ _____ _____    ______ ____
ROOT
ATOM      1  C   UNL     1      -8.852  10.576  64.994  0.00  0.00    +0.031 C 
ATOM      2  C   UNL     1     -10.023  11.470  64.824  0.00  0.00    -0.016 A 
ATOM      3  C   UNL     1     -10.084  12.627  65.580  0.00  0.00    +0.011 A 
ATOM      4  C   UNL     1     -10.805  13.741  65.166  0.00  0.00    +0.070 A 
ATOM      5  N   UNL     1     -11.757  13.479  64.237  0.00  0.00    -0.153 N 
ATOM      6  O   UNL     1     -12.593  14.485  63.855  0.00  0.00    -0.077 OA
ATOM      7  C   UNL     1     -11.938  12.254  63.715  0.00  0.00    +0.286 A 
ATOM      8  O   UNL     1     -13.042  11.987  63.151  0.00  0.00    -0.265 OA
ATOM      9  C   UNL     1     -10.983  11.256  63.862  0.00  0.00    +0.059 A 
ENDROOT
BRANCH   4  10
ATOM     10  C   UNL     1     -11.000  14.799  66.182  0.00  0.00    +0.041 C 
ATOM     11  C   UNL     1     -12.002  14.271  67.202  0.00  0.00    +0.006 C 
ATOM     12  C   UNL     1     -11.279  13.683  68.409  0.00  0.00    +0.000 C 
ATOM     13  C   UNL     1     -10.639  14.805  69.219  0.00  0.00    +0.000 C 
ATOM     14  C   UNL     1     -10.187  15.847  68.207  0.00  0.00    +0.000 C 
ATOM     15  C   UNL     1      -9.728  15.071  66.978  0.00  0.00    +0.006 C 
ENDBRANCH   4  10
TORSDOF 1
ENDMDL
MODEL 5
REMARK VINA RESULT:      -5.5      3.397      6.339
REMARK  Name = 
REMARK  1 active torsions:
REMARK  status: ('A' for Active; 'I' for Inactive)
REMARK    1  A    between atoms: C_8  and  C_9
REMARK                            x       y       z     vdW  Elec       q    Type
REMARK                         _______ _______ _______ _____ _____    ______ ____
ROOT
ATOM      1  C   UNL     1      -9.114  17.366  66.529  0.00  0.00    +0.031 C 
ATOM      2  C   UNL     1     -10.126  16.481  67.156  0.00  0.00    -0.016 A 
ATOM      3  C   UNL     1     -10.415  15.275  66.544  0.00  0.00    +0.011 A 
ATOM      4  C   UNL     1     -10.915  14.189  67.254  0.00  0.00    +0.070 A 
ATOM      5  N   UNL     1     -11.489  14.511  68.440  0.00  0.00    -0.153 N 
ATOM      6  O   UNL     1     -12.110  13.531  69.154  0.00  0.00    -0.077 OA
ATOM      7  C   UNL     1     -11.510  15.768  68.913  0.00  0.00    +0.286 A 
ATOM      8  O   UNL     1     -12.354  16.070  69.811  0.00  0.00    -0.265 OA
ATOM      9  C   UNL     1     -10.694  16.757  68.378  0.00  0.00    +0.059 A 
ENDROOT
BRANCH   4  10
ATOM     10  C   UNL     1     -11.424  13.062  66.441  0.00  0.00    +0.041 C 
ATOM     11  C   UNL     1     -12.639  13.569  65.672  0.00  0.00    +0.006 C 
ATOM     12  C   UNL     1     -12.241  13.996  64.263  0.00  0.00    +0.000 C 
ATOM     13  C   UNL     1     -11.894  12.765  63.433  0.00  0.00    +0.000 C 
ATOM     14  C   UNL     1     -11.233  11.786  64.392  0.00  0.00    +0.000 C 
ATOM     15  C   UNL     1     -10.427  12.632  65.370  0.00  0.00    +0.006 C 
ENDBRANCH   4  10
TORSDOF 1
ENDMDL
MODEL 6
REMARK VINA RESULT:      -5.5      3.368      6.318
REMARK  Name = 
REMARK  1 active torsions:
REMARK  status: ('A' for Active; 'I' for Inactive)
REMARK    1  A    between atoms: C_8  and  C_9
REMARK                            x       y       z     vdW  Elec       q    Type
REMARK                         _______ _______ _______ _____ _____    ______ ____
ROOT
ATOM      1  C   UNL     1     -12.060  13.851  69.522  0.00  0.00    +0.031 C 
ATOM      2  C   UNL     1     -11.463  14.525  68.344  0.00  0.00    -0.016 A 
ATOM      3  C   UNL     1     -11.661  13.965  67.094  0.00  0.00    +0.011 A 
ATOM      4  C   UNL     1     -11.615  14.723  65.930  0.00  0.00    +0.070 A 
ATOM      5  N   UNL     1     -10.957  15.904  66.056  0.00  0.00    -0.153 N 
ATOM      6  O   UNL     1     -10.759  16.663  64.943  0.00  0.00    -0.077 OA
ATOM      7  C   UNL     1     -10.455  16.328  67.227  0.00  0.00    +0.286 A 
ATOM      8  O   UNL     1      -9.557  17.224  67.219  0.00  0.00    -0.265 OA
ATOM      9  C   UNL     1     -10.830  15.743  68.431  0.00  0.00    +0.059 A 
ENDROOT
BRANCH   4  10
ATOM     10  C   UNL     1     -11.579  13.962  64.662  0.00  0.00    +0.041 C 
ATOM     11  C   UNL     1     -10.181  13.368  64.527  0.00  0.00    +0.006 C 
ATOM     12  C   UNL     1     -10.160  11.928  65.029  0.00  0.00    +0.000 C 
ATOM     13  C   UNL     1     -10.925  11.036  64.057  0.00  0.00    +0.000 C 
ATOM     14  C   UNL     1     -12.073  11.881  63.527  0.00  0.00    +0.000 C 
ATOM     15  C   UNL     1     -12.520  12.762  64.688  0.00  0.00    +0.006 C 
ENDBRANCH   4  10
TORSDOF 1
ENDMDL
MODEL 7
REMARK VINA RESULT:      -5.5      4.556      5.628
REMARK  Name = 
REMARK  1 active torsions:
REMARK  status: ('A' for Active; 'I' for Inactive)
REMARK    1  A    between atoms: C_8  and  C_9
REMARK                            x       y       z     vdW  Elec       q    Type
REMARK                         _______ _______ _______ _____ _____    ______ ____
ROOT
ATOM      1  C   UNL     1     -11.679  15.849  70.640  0.00  0.00    +0.031 C 
ATOM      2  C   UNL     1     -11.559  15.736  69.166  0.00  0.00    -0.016 A 
ATOM      3  C   UNL     1     -10.951  16.767  68.474  0.00  0.00    +0.011 A 
ATOM      4  C   UNL     1     -10.337  16.567  67.242  0.00  0.00    +0.070 A 
ATOM      5  N   UNL     1     -10.740  15.448  66.590  0.00  0.00    -0.153 N 
ATOM      6  O   UNL     1     -10.283  15.227  65.326  0.00  0.00    -0.077 OA
ATOM      7  C   UNL     1     -11.610  14.575  67.125  0.00  0.00    +0.286 A 
ATOM      8  O   UNL     1     -12.222  13.772  66.358  0.00  0.00    -0.265 OA
ATOM      9  C   UNL     1     -11.918  14.598  68.480  0.00  0.00    +0.059 A 
ENDROOT
BRANCH   4  10
ATOM     10  C   UNL     1      -9.964  17.791  66.499  0.00  0.00    +0.041 C 
ATOM     11  C   UNL     1     -10.598  18.974  67.223  0.00  0.00    +0.006 C 
ATOM     12  C   UNL     1      -9.595  19.622  68.172  0.00  0.00    +0.000 C 
ATOM     13  C   UNL     1      -8.521  20.345  67.366  0.00  0.00    +0.000 C 
ATOM     14  C   UNL     1      -8.300  19.507  66.116  0.00  0.00    +0.000 C 
ATOM     15  C   UNL     1      -8.462  18.054  66.547  0.00  0.00    +0.006 C 
ENDBRANCH   4  10
TORSDOF 1
ENDMDL
MODEL 8
REMARK VINA RESULT:      -5.4      2.209      4.876
REMARK  Name = 
REMARK  1 active torsions:
REMARK  status: ('A' for Active; 'I' for Inactive)
REMARK    1  A    between atoms: C_8  and  C_9
REMARK                            x       y       z     vdW  Elec       q    Type
REMARK                         _______ _______ _______ _____ _____    ______ ____
ROOT
ATOM      1  C   UNL     1     -12.765  11.240  71.039  0.00  0.00    +0.031 C 
ATOM      2  C   UNL     1     -12.349  12.600  70.621  0.00  0.00    -0.016 A 
ATOM      3  C   UNL     1     -11.748  12.755  69.385  0.00  0.00    +0.011 A 
ATOM      4  C   UNL     1     -11.789  13.959  68.690  0.00  0.00    +0.070 A 
ATOM      5  N   UNL     1     -12.059  15.042  69.461  0.00  0.00    -0.153 N 
ATOM      6  O   UNL     1     -12.006  16.279  68.893  0.00  0.00    -0.077 OA
ATOM      7  C   UNL     1     -12.330  14.943  70.773  0.00  0.00    +0.286 A 
ATOM      8  O   UNL     1     -12.210  15.975  71.501  0.00  0.00    -0.265 OA
ATOM      9  C   UNL     1     -12.646  13.723  71.358  0.00  0.00    +0.059 A 
ENDROOT
BRANCH   4  10
ATOM     10  C   UNL     1     -10.891  14.061  67.518  0.00  0.00    +0.041 C 
ATOM     11  C   UNL     1     -10.343  12.665  67.243  0.00  0.00    +0.006 C 
ATOM     12  C   UNL     1     -11.162  11.971  66.160  0.00  0.00    +0.000 C 
ATOM     13  C   UNL     1     -10.897  12.634  64.813  0.00  0.00    +0.000 C 
ATOM     14  C   UNL     1     -10.697  14.114  65.106  0.00  0.00    +0.000 C 
ATOM     15  C   UNL     1     -11.645  14.449  66.251  0.00  0.00    +0.006 C 
ENDBRANCH   4  10
TORSDOF 1
ENDMDL
MODEL 9
REMARK VINA RESULT:      -5.3      4.397      5.620
REMARK  Name = 
REMARK  1 active torsions:
REMARK  status: ('A' for Active; 'I' for Inactive)
REMARK    1  A    between atoms: C_8  and  C_9
REMARK                            x       y       z     vdW  Elec       q    Type
REMARK                         _______ _______ _______ _____ _____    ______ ____
ROOT
ATOM      1  C   UNL     1     -10.958  14.257  64.914  0.00  0.00    +0.031 C 
ATOM      2  C   UNL     1     -11.016  14.664  66.338  0.00  0.00    -0.016 A 
ATOM      3  C   UNL     1     -10.562  15.924  66.683  0.00  0.00    +0.011 A 
ATOM      4  C   UNL     1     -11.017  16.589  67.815  0.00  0.00    +0.070 A 
ATOM      5  N   UNL     1     -11.575  15.781  68.753  0.00  0.00    -0.153 N 
ATOM      6  O   UNL     1     -11.945  16.323  69.946  0.00  0.00    -0.077 OA
ATOM      7  C   UNL     1     -11.730  14.460  68.566  0.00  0.00    +0.286 A 
ATOM      8  O   UNL     1     -11.904  13.715  69.578  0.00  0.00    -0.265 OA
ATOM      9  C   UNL     1     -11.613  13.888  67.305  0.00  0.00    +0.059 A 
ENDROOT
BRANCH   4  10
ATOM     10  C   UNL     1     -10.262  17.800  68.204  0.00  0.00    +0.041 C 
ATOM     11  C   UNL     1      -8.790  17.530  67.913  0.00  0.00    +0.006 C 
ATOM     12  C   UNL     1      -8.397  18.102  66.555  0.00  0.00    +0.000 C 
ATOM     13  C   UNL     1      -8.381  19.625  66.626  0.00  0.00    +0.000 C 
ATOM     14  C   UNL     1      -9.506  20.012  67.574  0.00  0.00    +0.000 C 
ATOM     15  C   UNL     1     -10.623  19.002  67.339  0.00  0.00    +0.006 C 
ENDBRANCH   4  10
TORSDOF 1
ENDMDL
