MODEL 1
REMARK VINA RESULT:      -6.3      0.000      0.000
REMARK  Name = 
REMARK  3 active torsions:
REMARK  status: ('A' for Active; 'I' for Inactive)
REMARK    1  A    between atoms: C_2  and  C_3
REMARK    2  A    between atoms: C_11  and  C_12
REMARK    3  A    between atoms: C_12  and  N_13
REMARK                            x       y       z     vdW  Elec       q    Type
REMARK                         _______ _______ _______ _____ _____    ______ ____
ROOT
ATOM      1  C   UNL     1      -8.577  18.379  67.835  0.00  0.00    -0.005 A 
ATOM      2  C   UNL     1      -9.132  17.315  68.495  0.00  0.00    +0.045 A 
ATOM      3  C   UNL     1     -10.537  17.091  68.870  0.00  0.00    +0.175 C 
ATOM      4  C   UNL     1     -10.538  15.900  69.977  0.00  0.00    +0.078 C 
ATOM      5  C   UNL     1      -9.941  14.807  68.871  0.00  0.00    +0.015 C 
ATOM      6  C   UNL     1      -8.446  15.031  69.104  0.00  0.00    +0.046 C 
ATOM      7  O   UNL     1     -11.363  17.096  67.978  0.00  0.00    -0.291 OA
ATOM      8  C   UNL     1      -8.108  16.480  68.925  0.00  0.00    +0.061 A 
ATOM      9  N   UNL     1      -7.010  17.225  68.861  0.00  0.00    -0.254 NA
ATOM     10  C   UNL     1      -7.223  18.362  68.151  0.00  0.00    +0.055 A 
ATOM     11  C   UNL     1      -6.436  19.635  68.172  0.00  0.00    +0.052 C 
ENDROOT
BRANCH   1  13
ATOM     12  C   UNL     1      -9.879  20.341  67.299  0.00  0.00    +0.005 C 
ATOM     13  C   UNL     1      -9.313  19.194  66.857  0.00  0.00    +0.028 C 
ENDBRANCH   1  13
BRANCH   4  14
ATOM     14  C   UNL     1     -12.110  15.434  69.690  0.00  0.00    +0.080 C 
BRANCH  14  15
ATOM     15  N   UNL     1     -12.772  15.897  70.898  0.00  0.00    -0.268 NA
ATOM     16  C   UNL     1     -13.870  15.027  71.281  0.00  0.00    +0.105 C 
ATOM     17  C   UNL     1     -13.378  14.073  72.346  0.00  0.00    +0.159 C 
ATOM     18  O   UNL     1     -13.297  14.771  73.550  0.00  0.00    -0.351 OA
ATOM     19  C   UNL     1     -12.593  15.938  73.330  0.00  0.00    +0.159 C 
ATOM     20  C   UNL     1     -11.861  15.939  72.023  0.00  0.00    +0.105 C 
ENDBRANCH  14  15
ENDBRANCH   4  14
TORSDOF 3
ENDMDL
MODEL 2
REMARK VINA RESULT:      -6.3      3.338      5.084
REMARK  Name = 
REMARK  3 active torsions:
REMARK  status: ('A' for Active; 'I' for Inactive)
REMARK    1  A    between atoms: C_2  and  C_3
REMARK    2  A    between atoms: C_11  and  C_12
REMARK    3  A    between atoms: C_12  and  N_13
REMARK                            x       y       z     vdW  Elec       q    Type
REMARK                         _______ _______ _______ _____ _____    ______ ____
ROOT
ATOM      1  C   UNL     1     -11.347  12.582  65.795  0.00  0.00    -0.005 A 
ATOM      2  C   UNL     1     -11.284  13.668  66.626  0.00  0.00    +0.045 A 
ATOM      3  C   UNL     1     -11.425  13.720  68.090  0.00  0.00    +0.175 C 
ATOM      4  C   UNL     1     -11.680  15.279  68.477  0.00  0.00    +0.078 C 
ATOM      5  C   UNL     1     -10.174  15.714  67.917  0.00  0.00    +0.015 C 
ATOM      6  C   UNL     1     -10.541  16.009  66.461  0.00  0.00    +0.046 C 
ATOM      7  O   UNL     1     -10.660  13.045  68.752  0.00  0.00    -0.291 OA
ATOM      8  C   UNL     1     -11.210  14.816  65.848  0.00  0.00    +0.061 A 
ATOM      9  N   UNL     1     -11.607  14.435  64.638  0.00  0.00    -0.254 NA
ATOM     10  C   UNL     1     -11.644  13.083  64.532  0.00  0.00    +0.055 A 
ATOM     11  C   UNL     1     -12.395  12.245  63.546  0.00  0.00    +0.052 C 
ENDROOT
BRANCH   1  13
ATOM     12  C   UNL     1      -9.668  10.864  66.053  0.00  0.00    +0.005 C 
ATOM     13  C   UNL     1     -10.963  11.224  66.212  0.00  0.00    +0.028 C 
ENDBRANCH   1  13
BRANCH   4  14
ATOM     14  C   UNL     1     -11.131  15.135  70.041  0.00  0.00    +0.080 C 
BRANCH  14  15
ATOM     15  N   UNL     1     -12.286  15.593  70.795  0.00  0.00    -0.268 NA
ATOM     16  C   UNL     1     -13.321  14.578  70.869  0.00  0.00    +0.105 C 
ATOM     17  C   UNL     1     -13.194  13.858  72.192  0.00  0.00    +0.159 C 
ATOM     18  O   UNL     1     -13.707  14.686  73.189  0.00  0.00    -0.351 OA
ATOM     19  C   UNL     1     -13.132  15.934  73.056  0.00  0.00    +0.159 C 
ATOM     20  C   UNL     1     -11.933  15.931  72.158  0.00  0.00    +0.105 C 
ENDBRANCH  14  15
ENDBRANCH   4  14
TORSDOF 3
ENDMDL
MODEL 3
REMARK VINA RESULT:      -6.0      5.848      8.706
REMARK  Name = 
REMARK  3 active torsions:
REMARK  status: ('A' for Active; 'I' for Inactive)
REMARK    1  A    between atoms: C_2  and  C_3
REMARK    2  A    between atoms: C_11  and  C_12
REMARK    3  A    between atoms: C_12  and  N_13
REMARK                            x       y       z     vdW  Elec       q    Type
REMARK                         _______ _______ _______ _____ _____    ______ ____
ROOT
ATOM      1  C   UNL     1     -11.405   9.023  70.550  0.00  0.00    -0.005 A 
ATOM      2  C   UNL     1     -10.992   9.655  69.408  0.00  0.00    +0.045 A 
ATOM      3  C   UNL     1     -11.600  10.802  68.715  0.00  0.00    +0.175 C 
ATOM      4  C   UNL     1     -10.944  10.848  67.227  0.00  0.00    +0.078 C 
ATOM      5  C   UNL     1      -9.430  11.148  67.853  0.00  0.00    +0.015 C 
ATOM      6  C   UNL     1      -8.956   9.704  68.024  0.00  0.00    +0.046 C 
ATOM      7  O   UNL     1     -11.744  11.829  69.350  0.00  0.00    -0.291 OA
ATOM      8  C   UNL     1      -9.932   8.938  68.865  0.00  0.00    +0.061 A 
ATOM      9  N   UNL     1      -9.994   7.745  69.447  0.00  0.00    -0.254 NA
ATOM     10  C   UNL     1     -10.826   7.759  70.519  0.00  0.00    +0.055 A 
ATOM     11  C   UNL     1     -11.498   6.604  71.192  0.00  0.00    +0.052 C 
ENDROOT
BRANCH   1  13
ATOM     12  C   UNL     1     -13.491   9.543  71.650  0.00  0.00    +0.005 C 
ATOM     13  C   UNL     1     -12.147   9.701  71.624  0.00  0.00    +0.028 C 
ENDBRANCH   1  13
BRANCH   4  14
ATOM     14  C   UNL     1     -11.239  12.467  66.985  0.00  0.00    +0.080 C 
BRANCH  14  15
ATOM     15  N   UNL     1     -12.191  12.425  65.889  0.00  0.00    -0.268 NA
ATOM     16  C   UNL     1     -12.807  13.719  65.656  0.00  0.00    +0.105 C 
ATOM     17  C   UNL     1     -12.077  14.402  64.522  0.00  0.00    +0.159 C 
ATOM     18  O   UNL     1     -12.483  13.812  63.327  0.00  0.00    -0.351 OA
ATOM     19  C   UNL     1     -12.372  12.443  63.457  0.00  0.00    +0.159 C 
ATOM     20  C   UNL     1     -11.557  12.035  64.647  0.00  0.00    +0.105 C 
ENDBRANCH  14  15
ENDBRANCH   4  14
TORSDOF 3
ENDMDL
MODEL 4
REMARK VINA RESULT:      -6.0      4.113      6.916
REMARK  Name = 
REMARK  3 active torsions:
REMARK  status: ('A' for Active; 'I' for Inactive)
REMARK    1  A    between atoms: C_2  and  C_3
REMARK    2  A    between atoms: C_11  and  C_12
REMARK    3  A    between atoms: C_12  and  N_13
REMARK                            x       y       z     vdW  Elec       q    Type
REMARK                         _______ _______ _______ _____ _____    ______ ____
ROOT
ATOM      1  C   UNL     1     -12.513  14.347  70.641  0.00  0.00    -0.005 A 
ATOM      2  C   UNL     1     -11.994  13.858  69.472  0.00  0.00    +0.045 A 
ATOM      3  C   UNL     1     -11.839  14.536  68.176  0.00  0.00    +0.175 C 
ATOM      4  C   UNL     1     -11.570  13.372  67.071  0.00  0.00    +0.078 C 
ATOM      5  C   UNL     1     -10.134  12.947  67.799  0.00  0.00    +0.015 C 
ATOM      6  C   UNL     1     -10.669  11.902  68.780  0.00  0.00    +0.046 C 
ATOM      7  O   UNL     1     -11.185  15.561  68.154  0.00  0.00    -0.291 OA
ATOM      8  C   UNL     1     -11.747  12.500  69.632  0.00  0.00    +0.061 A 
ATOM      9  N   UNL     1     -12.454  12.148  70.701  0.00  0.00    -0.254 NA
ATOM     10  C   UNL     1     -12.888  13.235  71.388  0.00  0.00    +0.055 A 
ATOM     11  C   UNL     1     -14.014  13.330  72.369  0.00  0.00    +0.052 C 
ENDROOT
BRANCH   1  13
ATOM     12  C   UNL     1     -11.868  16.077  72.198  0.00  0.00    +0.005 C 
ATOM     13  C   UNL     1     -12.455  15.767  71.018  0.00  0.00    +0.028 C 
ENDBRANCH   1  13
BRANCH   4  14
ATOM     14  C   UNL     1     -10.802  14.373  65.986  0.00  0.00    +0.080 C 
BRANCH  14  15
ATOM     15  N   UNL     1     -11.265  13.833  64.719  0.00  0.00    -0.268 NA
ATOM     16  C   UNL     1     -10.235  13.058  64.052  0.00  0.00    +0.105 C 
ATOM     17  C   UNL     1     -10.465  11.594  64.350  0.00  0.00    +0.159 C 
ATOM     18  O   UNL     1     -11.532  11.154  63.568  0.00  0.00    -0.351 OA
ATOM     19  C   UNL     1     -12.581  12.036  63.727  0.00  0.00    +0.159 C 
ATOM     20  C   UNL     1     -12.400  12.951  64.899  0.00  0.00    +0.105 C 
ENDBRANCH  14  15
ENDBRANCH   4  14
TORSDOF 3
ENDMDL
MODEL 5
REMARK VINA RESULT:      -5.9      3.500      5.227
REMARK  Name = 
REMARK  3 active torsions:
REMARK  status: ('A' for Active; 'I' for Inactive)
REMARK    1  A    between atoms: C_2  and  C_3
REMARK    2  A    between atoms: C_11  and  C_12
REMARK    3  A    between atoms: C_12  and  N_13
REMARK                            x       y       z     vdW  Elec       q    Type
REMARK                         _______ _______ _______ _____ _____    ______ ____
ROOT
ATOM      1  C   UNL     1      -8.923  17.618  67.117  0.00  0.00    -0.005 A 
ATOM      2  C   UNL     1      -9.743  16.563  67.416  0.00  0.00    +0.045 A 
ATOM      3  C   UNL     1      -9.899  15.284  66.705  0.00  0.00    +0.175 C 
ATOM      4  C   UNL     1     -11.279  14.616  67.247  0.00  0.00    +0.078 C 
ATOM      5  C   UNL     1     -10.661  14.474  68.786  0.00  0.00    +0.015 C 
ATOM      6  C   UNL     1     -11.095  15.833  69.339  0.00  0.00    +0.046 C 
ATOM      7  O   UNL     1      -8.905  14.599  66.560  0.00  0.00    -0.291 OA
ATOM      8  C   UNL     1     -10.576  16.934  68.464  0.00  0.00    +0.061 A 
ATOM      9  N   UNL     1     -10.508  18.260  68.502  0.00  0.00    -0.254 NA
ATOM     10  C   UNL     1      -9.477  18.725  67.752  0.00  0.00    +0.055 A 
ATOM     11  C   UNL     1      -9.280  20.096  67.186  0.00  0.00    +0.052 C 
ENDROOT
BRANCH   1  13
ATOM     12  C   UNL     1      -6.550  17.178  67.183  0.00  0.00    +0.005 C 
ATOM     13  C   UNL     1      -7.634  17.467  66.426  0.00  0.00    +0.028 C 
ENDBRANCH   1  13
BRANCH   4  14
ATOM     14  C   UNL     1     -10.850  13.055  66.858  0.00  0.00    +0.080 C 
BRANCH  14  15
ATOM     15  N   UNL     1     -11.906  12.689  65.930  0.00  0.00    -0.268 NA
ATOM     16  C   UNL     1     -12.704  13.837  65.538  0.00  0.00    +0.105 C 
ATOM     17  C   UNL     1     -12.198  14.341  64.205  0.00  0.00    +0.159 C 
ATOM     18  O   UNL     1     -12.657  13.477  63.212  0.00  0.00    -0.351 OA
ATOM     19  C   UNL     1     -12.357  12.184  63.587  0.00  0.00    +0.159 C 
ATOM     20  C   UNL     1     -11.369  12.117  64.712  0.00  0.00    +0.105 C 
ENDBRANCH  14  15
ENDBRANCH   4  14
TORSDOF 3
ENDMDL
MODEL 6
REMARK VINA RESULT:      -5.8      3.943      6.797
REMARK  Name = 
REMARK  3 active torsions:
REMARK  status: ('A' for Active; 'I' for Inactive)
REMARK    1  A    between atoms: C_2  and  C_3
REMARK    2  A    between atoms: C_11  and  C_12
REMARK    3  A    between atoms: C_12  and  N_13
REMARK                            x       y       z     vdW  Elec       q    Type
REMARK                         _______ _______ _______ _____ _____    ______ ____
ROOT
ATOM      1  C   UNL     1     -10.617  11.983  65.001  0.00  0.00    -0.005 A 
ATOM      2  C   UNL     1     -10.501  13.112  65.766  0.00  0.00    +0.045 A 
ATOM      3  C   UNL     1     -10.255  14.498  65.337  0.00  0.00    +0.175 C 
ATOM      4  C   UNL     1      -9.800  15.322  66.664  0.00  0.00    +0.078 C 
ATOM      5  C   UNL     1     -11.283  15.079  67.380  0.00  0.00    +0.015 C 
ATOM      6  C   UNL     1     -10.986  13.758  68.092  0.00  0.00    +0.046 C 
ATOM      7  O   UNL     1     -11.043  14.990  64.553  0.00  0.00    -0.291 OA
ATOM      8  C   UNL     1     -10.499  12.740  67.105  0.00  0.00    +0.061 A 
ATOM      9  N   UNL     1     -10.231  11.438  67.097  0.00  0.00    -0.254 NA
ATOM     10  C   UNL     1     -10.353  10.915  65.852  0.00  0.00    +0.055 A 
ATOM     11  C   UNL     1      -9.770   9.646  65.312  0.00  0.00    +0.052 C 
ENDROOT
BRANCH   1  13
ATOM     12  C   UNL     1     -12.462  11.972  63.443  0.00  0.00    +0.005 C 
ATOM     13  C   UNL     1     -11.120  11.994  63.619  0.00  0.00    +0.028 C 
ENDBRANCH   1  13
BRANCH   4  14
ATOM     14  C   UNL     1     -10.253  16.811  66.075  0.00  0.00    +0.080 C 
BRANCH  14  15
ATOM     15  N   UNL     1      -9.854  17.685  67.166  0.00  0.00    -0.268 NA
ATOM     16  C   UNL     1      -8.451  18.045  67.085  0.00  0.00    +0.105 C 
ATOM     17  C   UNL     1      -8.341  19.405  66.432  0.00  0.00    +0.159 C 
ATOM     18  O   UNL     1      -8.703  20.368  67.372  0.00  0.00    -0.351 OA
ATOM     19  C   UNL     1      -9.908  19.998  67.933  0.00  0.00    +0.159 C 
ATOM     20  C   UNL     1     -10.605  18.923  67.158  0.00  0.00    +0.105 C 
ENDBRANCH  14  15
ENDBRANCH   4  14
TORSDOF 3
ENDMDL
MODEL 7
REMARK VINA RESULT:      -5.7      3.944      7.041
REMARK  Name = 
REMARK  3 active torsions:
REMARK  status: ('A' for Active; 'I' for Inactive)
REMARK    1  A    between atoms: C_2  and  C_3
REMARK    2  A    between atoms: C_11  and  C_12
REMARK    3  A    between atoms: C_12  and  N_13
REMARK                            x       y       z     vdW  Elec       q    Type
REMARK                         _______ _______ _______ _____ _____    ______ ____
ROOT
ATOM      1  C   UNL     1     -12.088  14.330  71.042  0.00  0.00    -0.005 A 
ATOM      2  C   UNL     1     -11.964  13.191  70.293  0.00  0.00    +0.045 A 
ATOM      3  C   UNL     1     -11.381  13.026  68.951  0.00  0.00    +0.175 C 
ATOM      4  C   UNL     1     -11.880  11.578  68.402  0.00  0.00    +0.078 C 
ATOM      5  C   UNL     1     -11.055  10.783  69.611  0.00  0.00    +0.015 C 
ATOM      6  C   UNL     1     -12.155  10.766  70.674  0.00  0.00    +0.046 C 
ATOM      7  O   UNL     1     -10.227  13.373  68.795  0.00  0.00    -0.291 OA
ATOM      8  C   UNL     1     -12.635  12.161  70.940  0.00  0.00    +0.061 A 
ATOM      9  N   UNL     1     -13.433  12.768  71.812  0.00  0.00    -0.254 NA
ATOM     10  C   UNL     1     -13.100  14.075  71.961  0.00  0.00    +0.055 A 
ATOM     11  C   UNL     1     -13.939  15.196  72.490  0.00  0.00    +0.052 C 
ENDROOT
BRANCH   1  13
ATOM     12  C   UNL     1     -11.371  16.368  69.964  0.00  0.00    +0.005 C 
ATOM     13  C   UNL     1     -11.155  15.463  70.947  0.00  0.00    +0.028 C 
ENDBRANCH   1  13
BRANCH   4  14
ATOM     14  C   UNL     1     -10.624  11.388  67.327  0.00  0.00    +0.080 C 
BRANCH  14  15
ATOM     15  N   UNL     1     -11.337  11.303  66.064  0.00  0.00    -0.268 NA
ATOM     16  C   UNL     1     -11.930  12.575  65.691  0.00  0.00    +0.105 C 
ATOM     17  C   UNL     1     -11.007  13.266  64.712  0.00  0.00    +0.159 C 
ATOM     18  O   UNL     1     -11.150  12.649  63.470  0.00  0.00    -0.351 OA
ATOM     19  C   UNL     1     -11.030  11.285  63.645  0.00  0.00    +0.159 C 
ATOM     20  C   UNL     1     -10.458  10.918  64.980  0.00  0.00    +0.105 C 
ENDBRANCH  14  15
ENDBRANCH   4  14
TORSDOF 3
ENDMDL
MODEL 8
REMARK VINA RESULT:      -5.6      3.569      4.972
REMARK  Name = 
REMARK  3 active torsions:
REMARK  status: ('A' for Active; 'I' for Inactive)
REMARK    1  A    between atoms: C_2  and  C_3
REMARK    2  A    between atoms: C_11  and  C_12
REMARK    3  A    between atoms: C_12  and  N_13
REMARK                            x       y       z     vdW  Elec       q    Type
REMARK                         _______ _______ _______ _____ _____    ______ ____
ROOT
ATOM      1  C   UNL     1      -6.838  19.174  68.534  0.00  0.00    -0.005 A 
ATOM      2  C   UNL     1      -7.950  18.595  67.984  0.00  0.00    +0.045 A 
ATOM      3  C   UNL     1      -8.292  17.167  67.879  0.00  0.00    +0.175 C 
ATOM      4  C   UNL     1      -9.489  17.055  66.783  0.00  0.00    +0.078 C 
ATOM      5  C   UNL     1     -10.519  17.939  67.748  0.00  0.00    +0.015 C 
ATOM      6  C   UNL     1     -10.175  19.339  67.238  0.00  0.00    +0.046 C 
ATOM      7  O   UNL     1      -8.347  16.527  68.911  0.00  0.00    -0.291 OA
ATOM      8  C   UNL     1      -8.701  19.585  67.361  0.00  0.00    +0.061 A 
ATOM      9  N   UNL     1      -7.868  20.610  67.223  0.00  0.00    -0.254 NA
ATOM     10  C   UNL     1      -6.747  20.442  67.968  0.00  0.00    +0.055 A 
ATOM     11  C   UNL     1      -5.413  21.102  67.809  0.00  0.00    +0.052 C 
ENDROOT
BRANCH   1  13
ATOM     12  C   UNL     1      -5.008  17.808  69.319  0.00  0.00    +0.005 C 
ATOM     13  C   UNL     1      -6.079  18.572  69.640  0.00  0.00    +0.028 C 
ENDBRANCH   1  13
BRANCH   4  14
ATOM     14  C   UNL     1     -10.080  15.610  67.359  0.00  0.00    +0.080 C 
BRANCH  14  15
ATOM     15  N   UNL     1     -11.144  15.336  66.407  0.00  0.00    -0.268 NA
ATOM     16  C   UNL     1     -10.640  15.210  65.052  0.00  0.00    +0.105 C 
ATOM     17  C   UNL     1     -10.468  13.741  64.738  0.00  0.00    +0.159 C 
ATOM     18  O   UNL     1     -11.729  13.200  64.493  0.00  0.00    -0.351 OA
ATOM     19  C   UNL     1     -12.567  13.562  65.527  0.00  0.00    +0.159 C 
ATOM     20  C   UNL     1     -11.828  14.097  66.715  0.00  0.00    +0.105 C 
ENDBRANCH  14  15
ENDBRANCH   4  14
TORSDOF 3
ENDMDL
MODEL 9
REMARK VINA RESULT:      -5.6      4.251      5.778
REMARK  Name = 
REMARK  3 active torsions:
REMARK  status: ('A' for Active; 'I' for Inactive)
REMARK    1  A    between atoms: C_2  and  C_3
REMARK    2  A    between atoms: C_11  and  C_12
REMARK    3  A    between atoms: C_12  and  N_13
REMARK                            x       y       z     vdW  Elec       q    Type
REMARK                         _______ _______ _______ _____ _____    ______ ____
ROOT
ATOM      1  C   UNL     1     -10.641  11.649  64.967  0.00  0.00    -0.005 A 
ATOM      2  C   UNL     1     -10.857  11.876  66.300  0.00  0.00    +0.045 A 
ATOM      3  C   UNL     1     -11.251  13.124  66.972  0.00  0.00    +0.175 C 
ATOM      4  C   UNL     1     -10.948  12.915  68.557  0.00  0.00    +0.078 C 
ATOM      5  C   UNL     1     -12.076  11.694  68.659  0.00  0.00    +0.015 C 
ATOM      6  C   UNL     1     -11.170  10.508  68.322  0.00  0.00    +0.046 C 
ATOM      7  O   UNL     1     -12.286  13.651  66.614  0.00  0.00    -0.291 OA
ATOM      8  C   UNL     1     -10.489  10.738  67.007  0.00  0.00    +0.061 A 
ATOM      9  N   UNL     1      -9.734  10.041  66.164  0.00  0.00    -0.254 NA
ATOM     10  C   UNL     1      -9.842  10.513  64.897  0.00  0.00    +0.055 A 
ATOM     11  C   UNL     1      -8.902  10.322  63.748  0.00  0.00    +0.052 C 
ENDROOT
BRANCH   1  13
ATOM     12  C   UNL     1     -12.518  11.918  63.471  0.00  0.00    +0.005 C 
ATOM     13  C   UNL     1     -11.326  12.395  63.901  0.00  0.00    +0.028 C 
ENDBRANCH   1  13
BRANCH   4  14
ATOM     14  C   UNL     1     -12.042  14.059  69.069  0.00  0.00    +0.080 C 
BRANCH  14  15
ATOM     15  N   UNL     1     -11.893  13.974  70.512  0.00  0.00    -0.268 NA
ATOM     16  C   UNL     1     -11.082  15.058  71.037  0.00  0.00    +0.105 C 
ATOM     17  C   UNL     1     -12.002  16.139  71.556  0.00  0.00    +0.159 C 
ATOM     18  O   UNL     1     -12.522  15.717  72.779  0.00  0.00    -0.351 OA
ATOM     19  C   UNL     1     -13.021  14.441  72.623  0.00  0.00    +0.159 C 
ATOM     20  C   UNL     1     -13.173  14.046  71.185  0.00  0.00    +0.105 C 
ENDBRANCH  14  15
ENDBRANCH   4  14
TORSDOF 3
ENDMDL
