MODEL 1
REMARK VINA RESULT:      -6.2      0.000      0.000
REMARK  Name = 
REMARK  4 active torsions:
REMARK  status: ('A' for Active; 'I' for Inactive)
REMARK    1  A    between atoms: C_7  and  C_8
REMARK    2  A    between atoms: C_8  and  C_9
REMARK    3  A    between atoms: C_8  and  C_15
REMARK    4  A    between atoms: C_8  and  N_21
REMARK                            x       y       z     vdW  Elec       q    Type
REMARK                         _______ _______ _______ _____ _____    ______ ____
ROOT
ATOM      1  C   UNL     1     -10.073  15.067  68.007  0.00  0.00    +0.128 C 
ENDROOT
BRANCH   1   4
ATOM      2 CL   UNL     1     -10.991  12.313  69.010  0.00  0.00    -0.082 Cl
ATOM      3  C   UNL     1     -11.530  13.865  69.638  0.00  0.00    +0.056 A 
ATOM      4  C   UNL     1     -10.922  15.024  69.210  0.00  0.00    +0.015 A 
ATOM      5  C   UNL     1     -10.903  16.071  70.124  0.00  0.00    -0.001 A 
ATOM      6  C   UNL     1     -11.752  16.066  71.212  0.00  0.00    -0.000 A 
ATOM      7  C   UNL     1     -12.652  15.031  71.418  0.00  0.00    +0.001 A 
ATOM      8  C   UNL     1     -12.421  13.862  70.705  0.00  0.00    +0.011 A 
ENDBRANCH   1   4
BRANCH   1   9
ATOM      9  C   UNL     1      -9.774  16.473  67.653  0.00  0.00    +0.004 A 
ATOM     10  C   UNL     1     -10.807  17.378  67.481  0.00  0.00    -0.002 A 
ATOM     11  C   UNL     1     -10.597  18.741  67.373  0.00  0.00    -0.000 A 
ATOM     12  C   UNL     1      -9.391  19.214  67.869  0.00  0.00    -0.000 A 
ATOM     13  C   UNL     1      -8.379  18.336  68.230  0.00  0.00    -0.000 A 
ATOM     14  C   UNL     1      -8.507  17.031  67.782  0.00  0.00    -0.002 A 
ENDBRANCH   1   9
BRANCH   1  15
ATOM     15  C   UNL     1     -10.706  14.375  66.840  0.00  0.00    +0.004 A 
ATOM     16  C   UNL     1     -12.087  14.348  66.699  0.00  0.00    -0.002 A 
ATOM     17  C   UNL     1     -12.697  13.869  65.551  0.00  0.00    -0.000 A 
ATOM     18  C   UNL     1     -11.849  13.523  64.505  0.00  0.00    -0.000 A 
ATOM     19  C   UNL     1     -10.537  13.917  64.517  0.00  0.00    -0.000 A 
ATOM     20  C   UNL     1     -10.003  14.481  65.644  0.00  0.00    -0.002 A 
ENDBRANCH   1  15
BRANCH   1  21
ATOM     21  N   UNL     1      -8.827  14.340  68.244  0.00  0.00    -0.301 N 
ATOM     22  C   UNL     1      -7.996  14.480  69.295  0.00  0.00    +0.179 A 
ATOM     23  N   UNL     1      -6.773  14.082  68.866  0.00  0.00    -0.222 NA
ATOM     24  C   UNL     1      -6.963  13.363  67.741  0.00  0.00    +0.119 A 
ATOM     25  C   UNL     1      -8.339  13.271  67.576  0.00  0.00    +0.099 A 
ENDBRANCH   1  21
TORSDOF 4
ENDMDL
MODEL 2
REMARK VINA RESULT:      -6.0      2.309      5.190
REMARK  Name = 
REMARK  4 active torsions:
REMARK  status: ('A' for Active; 'I' for Inactive)
REMARK    1  A    between atoms: C_7  and  C_8
REMARK    2  A    between atoms: C_8  and  C_9
REMARK    3  A    between atoms: C_8  and  C_15
REMARK    4  A    between atoms: C_8  and  N_21
REMARK                            x       y       z     vdW  Elec       q    Type
REMARK                         _______ _______ _______ _____ _____    ______ ____
ROOT
ATOM      1  C   UNL     1     -10.310  13.562  67.194  0.00  0.00    +0.128 C 
ENDROOT
BRANCH   1   4
ATOM      2 CL   UNL     1     -11.918  15.532  68.916  0.00  0.00    -0.082 Cl
ATOM      3  C   UNL     1     -11.638  13.836  69.290  0.00  0.00    +0.056 A 
ATOM      4  C   UNL     1     -11.036  13.022  68.357  0.00  0.00    +0.015 A 
ATOM      5  C   UNL     1     -11.398  11.680  68.401  0.00  0.00    -0.001 A 
ATOM      6  C   UNL     1     -12.012  11.157  69.521  0.00  0.00    -0.000 A 
ATOM      7  C   UNL     1     -12.272  11.944  70.633  0.00  0.00    +0.001 A 
ATOM      8  C   UNL     1     -12.218  13.319  70.443  0.00  0.00    +0.011 A 
ENDBRANCH   1   4
BRANCH   1   9
ATOM      9  C   UNL     1      -9.542  12.481  66.536  0.00  0.00    +0.004 A 
ATOM     10  C   UNL     1      -8.582  11.782  67.246  0.00  0.00    -0.002 A 
ATOM     11  C   UNL     1      -7.992  10.625  66.768  0.00  0.00    -0.000 A 
ATOM     12  C   UNL     1      -8.686   9.953  65.773  0.00  0.00    -0.000 A 
ATOM     13  C   UNL     1      -9.776  10.541  65.148  0.00  0.00    -0.000 A 
ATOM     14  C   UNL     1      -9.931  11.905  65.332  0.00  0.00    -0.002 A 
ENDBRANCH   1   9
BRANCH   1  15
ATOM     15  C   UNL     1      -9.389  14.680  67.570  0.00  0.00    +0.004 A 
ATOM     16  C   UNL     1      -8.763  14.694  68.809  0.00  0.00    -0.002 A 
ATOM     17  C   UNL     1      -7.778  15.617  69.122  0.00  0.00    -0.000 A 
ATOM     18  C   UNL     1      -7.373  16.455  68.090  0.00  0.00    -0.000 A 
ATOM     19  C   UNL     1      -7.715  16.173  66.794  0.00  0.00    -0.000 A 
ATOM     20  C   UNL     1      -8.619  15.181  66.526  0.00  0.00    -0.002 A 
ENDBRANCH   1  15
BRANCH   1  21
ATOM     21  N   UNL     1     -11.251  14.152  66.244  0.00  0.00    -0.301 N 
ATOM     22  C   UNL     1     -12.515  13.755  66.005  0.00  0.00    +0.179 A 
ATOM     23  N   UNL     1     -12.807  14.159  64.744  0.00  0.00    -0.222 NA
ATOM     24  C   UNL     1     -11.900  15.100  64.411  0.00  0.00    +0.119 A 
ATOM     25  C   UNL     1     -11.127  15.303  65.547  0.00  0.00    +0.099 A 
ENDBRANCH   1  21
TORSDOF 4
ENDMDL
MODEL 3
REMARK VINA RESULT:      -6.0      1.536      3.743
REMARK  Name = 
REMARK  4 active torsions:
REMARK  status: ('A' for Active; 'I' for Inactive)
REMARK    1  A    between atoms: C_7  and  C_8
REMARK    2  A    between atoms: C_8  and  C_9
REMARK    3  A    between atoms: C_8  and  C_15
REMARK    4  A    between atoms: C_8  and  N_21
REMARK                            x       y       z     vdW  Elec       q    Type
REMARK                         _______ _______ _______ _____ _____    ______ ____
ROOT
ATOM      1  C   UNL     1     -10.210  15.747  67.823  0.00  0.00    +0.128 C 
ENDROOT
BRANCH   1   4
ATOM      2 CL   UNL     1     -10.106  12.726  68.368  0.00  0.00    -0.082 Cl
ATOM      3  C   UNL     1     -11.183  13.874  69.155  0.00  0.00    +0.056 A 
ATOM      4  C   UNL     1     -11.020  15.223  68.937  0.00  0.00    +0.015 A 
ATOM      5  C   UNL     1     -11.403  16.056  69.982  0.00  0.00    -0.001 A 
ATOM      6  C   UNL     1     -12.221  15.585  70.988  0.00  0.00    -0.000 A 
ATOM      7  C   UNL     1     -12.696  14.282  70.980  0.00  0.00    +0.001 A 
ATOM      8  C   UNL     1     -12.042  13.393  70.136  0.00  0.00    +0.011 A 
ENDBRANCH   1   4
BRANCH   1   9
ATOM      9  C   UNL     1      -8.778  15.463  68.067  0.00  0.00    +0.004 A 
ATOM     10  C   UNL     1      -7.847  15.691  67.068  0.00  0.00    -0.002 A 
ATOM     11  C   UNL     1      -6.482  15.664  67.296  0.00  0.00    -0.000 A 
ATOM     12  C   UNL     1      -6.081  15.831  68.614  0.00  0.00    -0.000 A 
ATOM     13  C   UNL     1      -7.005  15.790  69.647  0.00  0.00    -0.000 A 
ATOM     14  C   UNL     1      -8.252  15.272  69.339  0.00  0.00    -0.002 A 
ENDBRANCH   1   9
BRANCH   1  15
ATOM     15  C   UNL     1     -10.407  17.217  67.620  0.00  0.00    +0.004 A 
ATOM     16  C   UNL     1      -9.918  18.129  68.546  0.00  0.00    -0.002 A 
ATOM     17  C   UNL     1      -9.932  19.494  68.306  0.00  0.00    -0.000 A 
ATOM     18  C   UNL     1     -10.357  19.891  67.044  0.00  0.00    -0.000 A 
ATOM     19  C   UNL     1     -10.462  18.977  66.029  0.00  0.00    -0.000 A 
ATOM     20  C   UNL     1     -10.340  17.640  66.297  0.00  0.00    -0.002 A 
ENDBRANCH   1  15
BRANCH   1  21
ATOM     21  N   UNL     1     -10.629  15.134  66.564  0.00  0.00    -0.301 N 
ATOM     22  C   UNL     1     -11.892  14.902  66.157  0.00  0.00    +0.179 A 
ATOM     23  N   UNL     1     -11.824  13.874  65.277  0.00  0.00    -0.222 NA
ATOM     24  C   UNL     1     -10.539  13.777  64.881  0.00  0.00    +0.119 A 
ATOM     25  C   UNL     1      -9.874  14.838  65.483  0.00  0.00    +0.099 A 
ENDBRANCH   1  21
TORSDOF 4
ENDMDL
MODEL 4
REMARK VINA RESULT:      -6.0      1.501      4.237
REMARK  Name = 
REMARK  4 active torsions:
REMARK  status: ('A' for Active; 'I' for Inactive)
REMARK    1  A    between atoms: C_7  and  C_8
REMARK    2  A    between atoms: C_8  and  C_9
REMARK    3  A    between atoms: C_8  and  C_15
REMARK    4  A    between atoms: C_8  and  N_21
REMARK                            x       y       z     vdW  Elec       q    Type
REMARK                         _______ _______ _______ _____ _____    ______ ____
ROOT
ATOM      1  C   UNL     1     -10.259  15.177  67.895  0.00  0.00    +0.128 C 
ENDROOT
BRANCH   1   4
ATOM      2 CL   UNL     1     -10.856  12.307  68.808  0.00  0.00    -0.082 Cl
ATOM      3  C   UNL     1     -11.075  12.930  67.178  0.00  0.00    +0.056 A 
ATOM      4  C   UNL     1     -10.923  14.277  66.936  0.00  0.00    +0.015 A 
ATOM      5  C   UNL     1     -11.683  14.794  65.892  0.00  0.00    -0.001 A 
ATOM      6  C   UNL     1     -12.243  13.955  64.952  0.00  0.00    -0.000 A 
ATOM      7  C   UNL     1     -12.056  12.582  65.009  0.00  0.00    +0.001 A 
ATOM      8  C   UNL     1     -11.597  12.072  66.217  0.00  0.00    +0.011 A 
ENDBRANCH   1   4
BRANCH   1   9
ATOM      9  C   UNL     1     -10.087  16.517  67.288  0.00  0.00    +0.004 A 
ATOM     10  C   UNL     1     -10.623  17.632  67.908  0.00  0.00    -0.002 A 
ATOM     11  C   UNL     1     -10.312  18.924  67.523  0.00  0.00    -0.000 A 
ATOM     12  C   UNL     1      -9.138  19.080  66.802  0.00  0.00    -0.000 A 
ATOM     13  C   UNL     1      -8.457  17.977  66.308  0.00  0.00    -0.000 A 
ATOM     14  C   UNL     1      -9.154  16.779  66.292  0.00  0.00    -0.002 A 
ENDBRANCH   1   9
BRANCH   1  15
ATOM     15  C   UNL     1      -8.932  14.651  68.343  0.00  0.00    +0.004 A 
ATOM     16  C   UNL     1      -8.159  13.869  67.495  0.00  0.00    -0.002 A 
ATOM     17  C   UNL     1      -6.859  13.509  67.812  0.00  0.00    -0.000 A 
ATOM     18  C   UNL     1      -6.334  14.067  68.971  0.00  0.00    -0.000 A 
ATOM     19  C   UNL     1      -6.961  15.124  69.577  0.00  0.00    -0.000 A 
ATOM     20  C   UNL     1      -8.207  15.509  69.162  0.00  0.00    -0.002 A 
ENDBRANCH   1  15
BRANCH   1  21
ATOM     21  N   UNL     1     -11.054  15.285  69.116  0.00  0.00    -0.301 N 
ATOM     22  C   UNL     1     -12.398  15.306  69.209  0.00  0.00    +0.179 A 
ATOM     23  N   UNL     1     -12.687  15.955  70.363  0.00  0.00    -0.222 NA
ATOM     24  C   UNL     1     -11.564  15.957  71.109  0.00  0.00    +0.119 A 
ATOM     25  C   UNL     1     -10.634  15.207  70.399  0.00  0.00    +0.099 A 
ENDBRANCH   1  21
TORSDOF 4
ENDMDL
MODEL 5
REMARK VINA RESULT:      -5.9      1.744      4.538
REMARK  Name = 
REMARK  4 active torsions:
REMARK  status: ('A' for Active; 'I' for Inactive)
REMARK    1  A    between atoms: C_7  and  C_8
REMARK    2  A    between atoms: C_8  and  C_9
REMARK    3  A    between atoms: C_8  and  C_15
REMARK    4  A    between atoms: C_8  and  N_21
REMARK                            x       y       z     vdW  Elec       q    Type
REMARK                         _______ _______ _______ _____ _____    ______ ____
ROOT
ATOM      1  C   UNL     1     -10.437  14.919  67.372  0.00  0.00    +0.128 C 
ENDROOT
BRANCH   1   4
ATOM      2 CL   UNL     1      -8.293  15.156  69.558  0.00  0.00    -0.082 Cl
ATOM      3  C   UNL     1      -8.246  14.049  68.191  0.00  0.00    +0.056 A 
ATOM      4  C   UNL     1      -9.346  13.930  67.371  0.00  0.00    +0.015 A 
ATOM      5  C   UNL     1      -9.518  12.689  66.766  0.00  0.00    -0.001 A 
ATOM      6  C   UNL     1      -8.473  11.791  66.701  0.00  0.00    -0.000 A 
ATOM      7  C   UNL     1      -7.224  12.101  67.218  0.00  0.00    +0.001 A 
ATOM      8  C   UNL     1      -7.170  13.175  68.098  0.00  0.00    +0.011 A 
ENDBRANCH   1   4
BRANCH   1   9
ATOM      9  C   UNL     1      -9.876  16.287  67.297  0.00  0.00    +0.004 A 
ATOM     10  C   UNL     1      -8.692  16.513  66.618  0.00  0.00    -0.002 A 
ATOM     11  C   UNL     1      -8.232  17.784  66.318  0.00  0.00    -0.000 A 
ATOM     12  C   UNL     1      -9.182  18.794  66.331  0.00  0.00    -0.000 A 
ATOM     13  C   UNL     1     -10.452  18.568  66.840  0.00  0.00    -0.000 A 
ATOM     14  C   UNL     1     -10.616  17.423  67.603  0.00  0.00    -0.002 A 
ENDBRANCH   1   9
BRANCH   1  15
ATOM     15  C   UNL     1     -11.313  14.797  68.580  0.00  0.00    +0.004 A 
ATOM     16  C   UNL     1     -11.498  13.566  69.197  0.00  0.00    -0.002 A 
ATOM     17  C   UNL     1     -12.159  13.447  70.409  0.00  0.00    -0.000 A 
ATOM     18  C   UNL     1     -12.526  14.636  71.027  0.00  0.00    -0.000 A 
ATOM     19  C   UNL     1     -11.999  15.828  70.605  0.00  0.00    -0.000 A 
ATOM     20  C   UNL     1     -11.265  15.880  69.450  0.00  0.00    -0.002 A 
ENDBRANCH   1  15
BRANCH   1  21
ATOM     21  N   UNL     1     -11.328  14.686  66.237  0.00  0.00    -0.301 N 
ATOM     22  C   UNL     1     -12.586  14.207  66.279  0.00  0.00    +0.179 A 
ATOM     23  N   UNL     1     -12.817  13.641  65.070  0.00  0.00    -0.222 NA
ATOM     24  C   UNL     1     -11.884  14.122  64.223  0.00  0.00    +0.119 A 
ATOM     25  C   UNL     1     -11.159  15.059  64.948  0.00  0.00    +0.099 A 
ENDBRANCH   1  21
TORSDOF 4
ENDMDL
MODEL 6
REMARK VINA RESULT:      -5.9      1.524      4.464
REMARK  Name = 
REMARK  4 active torsions:
REMARK  status: ('A' for Active; 'I' for Inactive)
REMARK    1  A    between atoms: C_7  and  C_8
REMARK    2  A    between atoms: C_8  and  C_9
REMARK    3  A    between atoms: C_8  and  C_15
REMARK    4  A    between atoms: C_8  and  N_21
REMARK                            x       y       z     vdW  Elec       q    Type
REMARK                         _______ _______ _______ _____ _____    ______ ____
ROOT
ATOM      1  C   UNL     1     -10.273  15.498  67.686  0.00  0.00    +0.128 C 
ENDROOT
BRANCH   1   4
ATOM      2 CL   UNL     1     -10.277  12.549  68.542  0.00  0.00    -0.082 Cl
ATOM      3  C   UNL     1     -11.331  13.803  69.182  0.00  0.00    +0.056 A 
ATOM      4  C   UNL     1     -11.120  15.117  68.830  0.00  0.00    +0.015 A 
ATOM      5  C   UNL     1     -11.496  16.065  69.776  0.00  0.00    -0.001 A 
ATOM      6  C   UNL     1     -12.348  15.726  70.806  0.00  0.00    -0.000 A 
ATOM      7  C   UNL     1     -12.864  14.444  70.921  0.00  0.00    +0.001 A 
ATOM      8  C   UNL     1     -12.223  13.453  70.188  0.00  0.00    +0.011 A 
ENDBRANCH   1   4
BRANCH   1   9
ATOM      9  C   UNL     1     -10.750  14.819  66.460  0.00  0.00    +0.004 A 
ATOM     10  C   UNL     1      -9.858  14.126  65.661  0.00  0.00    -0.002 A 
ATOM     11  C   UNL     1     -10.265  13.289  64.636  0.00  0.00    -0.000 A 
ATOM     12  C   UNL     1     -11.572  12.831  64.707  0.00  0.00    -0.000 A 
ATOM     13  C   UNL     1     -12.466  13.371  65.620  0.00  0.00    -0.000 A 
ATOM     14  C   UNL     1     -12.095  14.567  66.212  0.00  0.00    -0.002 A 
ENDBRANCH   1   9
BRANCH   1  15
ATOM     15  C   UNL     1      -8.830  15.172  67.915  0.00  0.00    +0.004 A 
ATOM     16  C   UNL     1      -7.855  15.628  67.038  0.00  0.00    -0.002 A 
ATOM     17  C   UNL     1      -6.504  15.491  67.310  0.00  0.00    -0.000 A 
ATOM     18  C   UNL     1      -6.179  14.976  68.559  0.00  0.00    -0.000 A 
ATOM     19  C   UNL     1      -7.126  14.899  69.545  0.00  0.00    -0.000 A 
ATOM     20  C   UNL     1      -8.441  15.142  69.250  0.00  0.00    -0.002 A 
ENDBRANCH   1  15
BRANCH   1  21
ATOM     21  N   UNL     1     -10.307  16.946  67.496  0.00  0.00    -0.301 N 
ATOM     22  C   UNL     1     -10.620  17.608  66.365  0.00  0.00    +0.179 A 
ATOM     23  N   UNL     1     -10.007  18.814  66.449  0.00  0.00    -0.222 NA
ATOM     24  C   UNL     1      -9.684  19.004  67.744  0.00  0.00    +0.119 A 
ATOM     25  C   UNL     1     -10.210  17.918  68.431  0.00  0.00    +0.099 A 
ENDBRANCH   1  21
TORSDOF 4
ENDMDL
MODEL 7
REMARK VINA RESULT:      -5.9      1.683      4.631
REMARK  Name = 
REMARK  4 active torsions:
REMARK  status: ('A' for Active; 'I' for Inactive)
REMARK    1  A    between atoms: C_7  and  C_8
REMARK    2  A    between atoms: C_8  and  C_9
REMARK    3  A    between atoms: C_8  and  C_15
REMARK    4  A    between atoms: C_8  and  N_21
REMARK                            x       y       z     vdW  Elec       q    Type
REMARK                         _______ _______ _______ _____ _____    ______ ____
ROOT
ATOM      1  C   UNL     1      -9.735  15.926  67.735  0.00  0.00    +0.128 C 
ENDROOT
BRANCH   1   4
ATOM      2 CL   UNL     1      -7.378  16.842  65.991  0.00  0.00    -0.082 Cl
ATOM      3  C   UNL     1      -8.474  17.900  66.871  0.00  0.00    +0.056 A 
ATOM      4  C   UNL     1      -9.587  17.371  67.486  0.00  0.00    +0.015 A 
ATOM      5  C   UNL     1     -10.683  18.220  67.589  0.00  0.00    -0.001 A 
ATOM      6  C   UNL     1     -10.531  19.582  67.429  0.00  0.00    -0.000 A 
ATOM      7  C   UNL     1      -9.288  20.143  67.177  0.00  0.00    +0.001 A 
ATOM      8  C   UNL     1      -8.294  19.272  66.748  0.00  0.00    +0.011 A 
ENDBRANCH   1   4
BRANCH   1   9
ATOM      9  C   UNL     1      -9.972  15.219  66.456  0.00  0.00    +0.004 A 
ATOM     10  C   UNL     1      -9.675  13.872  66.345  0.00  0.00    -0.002 A 
ATOM     11  C   UNL     1     -10.076  13.103  65.265  0.00  0.00    -0.000 A 
ATOM     12  C   UNL     1     -11.135  13.603  64.522  0.00  0.00    -0.000 A 
ATOM     13  C   UNL     1     -11.594  14.896  64.720  0.00  0.00    -0.000 A 
ATOM     14  C   UNL     1     -10.764  15.741  65.440  0.00  0.00    -0.002 A 
ENDBRANCH   1   9
BRANCH   1  15
ATOM     15  C   UNL     1     -10.846  15.626  68.692  0.00  0.00    +0.004 A 
ATOM     16  C   UNL     1     -11.407  14.356  68.748  0.00  0.00    -0.002 A 
ATOM     17  C   UNL     1     -12.313  13.999  69.733  0.00  0.00    -0.000 A 
ATOM     18  C   UNL     1     -12.543  14.943  70.726  0.00  0.00    -0.000 A 
ATOM     19  C   UNL     1     -11.705  16.017  70.870  0.00  0.00    -0.000 A 
ATOM     20  C   UNL     1     -10.754  16.274  69.919  0.00  0.00    -0.002 A 
ENDBRANCH   1  15
BRANCH   1  21
ATOM     21  N   UNL     1      -8.532  15.400  68.377  0.00  0.00    -0.301 N 
ATOM     22  C   UNL     1      -7.755  16.029  69.279  0.00  0.00    +0.179 A 
ATOM     23  N   UNL     1      -6.526  15.464  69.179  0.00  0.00    -0.222 NA
ATOM     24  C   UNL     1      -6.682  14.289  68.536  0.00  0.00    +0.119 A 
ATOM     25  C   UNL     1      -8.050  14.137  68.346  0.00  0.00    +0.099 A 
ENDBRANCH   1  21
TORSDOF 4
ENDMDL
MODEL 8
REMARK VINA RESULT:      -5.8      2.748      5.337
REMARK  Name = 
REMARK  4 active torsions:
REMARK  status: ('A' for Active; 'I' for Inactive)
REMARK    1  A    between atoms: C_7  and  C_8
REMARK    2  A    between atoms: C_8  and  C_9
REMARK    3  A    between atoms: C_8  and  C_15
REMARK    4  A    between atoms: C_8  and  N_21
REMARK                            x       y       z     vdW  Elec       q    Type
REMARK                         _______ _______ _______ _____ _____    ______ ____
ROOT
ATOM      1  C   UNL     1     -10.511  12.627  66.765  0.00  0.00    +0.128 C 
ENDROOT
BRANCH   1   4
ATOM      2 CL   UNL     1      -8.114  12.220  68.641  0.00  0.00    -0.082 Cl
ATOM      3  C   UNL     1      -8.581  13.741  67.889  0.00  0.00    +0.056 A 
ATOM      4  C   UNL     1      -9.581  13.755  66.942  0.00  0.00    +0.015 A 
ATOM      5  C   UNL     1      -9.481  14.747  65.972  0.00  0.00    -0.001 A 
ATOM      6  C   UNL     1      -8.665  15.841  66.171  0.00  0.00    -0.000 A 
ATOM      7  C   UNL     1      -7.936  15.992  67.341  0.00  0.00    +0.001 A 
ATOM      8  C   UNL     1      -7.786  14.856  68.126  0.00  0.00    +0.011 A 
ENDBRANCH   1   4
BRANCH   1   9
ATOM      9  C   UNL     1     -11.403  12.522  67.941  0.00  0.00    +0.004 A 
ATOM     10  C   UNL     1     -11.510  11.323  68.625  0.00  0.00    -0.002 A 
ATOM     11  C   UNL     1     -12.141  11.214  69.852  0.00  0.00    -0.000 A 
ATOM     12  C   UNL     1     -12.282  12.392  70.571  0.00  0.00    -0.000 A 
ATOM     13  C   UNL     1     -12.013  13.619  69.984  0.00  0.00    -0.000 A 
ATOM     14  C   UNL     1     -11.915  13.633  68.602  0.00  0.00    -0.002 A 
ENDBRANCH   1   9
BRANCH   1  15
ATOM     15  C   UNL     1      -9.795  11.329  66.556  0.00  0.00    +0.004 A 
ATOM     16  C   UNL     1     -10.502  10.135  66.489  0.00  0.00    -0.002 A 
ATOM     17  C   UNL     1      -9.894   8.943  66.128  0.00  0.00    -0.000 A 
ATOM     18  C   UNL     1      -8.566   9.029  65.728  0.00  0.00    -0.000 A 
ATOM     19  C   UNL     1      -8.009  10.244  65.431  0.00  0.00    -0.000 A 
ATOM     20  C   UNL     1      -8.691  11.397  65.713  0.00  0.00    -0.002 A 
ENDBRANCH   1  15
BRANCH   1  21
ATOM     21  N   UNL     1     -11.307  12.817  65.555  0.00  0.00    -0.301 N 
ATOM     22  C   UNL     1     -12.617  13.122  65.487  0.00  0.00    +0.179 A 
ATOM     23  N   UNL     1     -13.052  12.663  64.287  0.00  0.00    -0.222 NA
ATOM     24  C   UNL     1     -11.960  12.461  63.522  0.00  0.00    +0.119 A 
ATOM     25  C   UNL     1     -10.880  12.905  64.275  0.00  0.00    +0.099 A 
ENDBRANCH   1  21
TORSDOF 4
ENDMDL
MODEL 9
REMARK VINA RESULT:      -5.8      1.840      4.182
REMARK  Name = 
REMARK  4 active torsions:
REMARK  status: ('A' for Active; 'I' for Inactive)
REMARK    1  A    between atoms: C_7  and  C_8
REMARK    2  A    between atoms: C_8  and  C_9
REMARK    3  A    between atoms: C_8  and  C_15
REMARK    4  A    between atoms: C_8  and  N_21
REMARK                            x       y       z     vdW  Elec       q    Type
REMARK                         _______ _______ _______ _____ _____    ______ ____
ROOT
ATOM      1  C   UNL     1     -10.225  14.022  67.124  0.00  0.00    +0.128 C 
ENDROOT
BRANCH   1   4
ATOM      2 CL   UNL     1      -8.700  15.548  69.310  0.00  0.00    -0.082 Cl
ATOM      3  C   UNL     1      -8.156  14.074  68.519  0.00  0.00    +0.056 A 
ATOM      4  C   UNL     1      -9.006  13.401  67.670  0.00  0.00    +0.015 A 
ATOM      5  C   UNL     1      -8.820  12.025  67.593  0.00  0.00    -0.001 A 
ATOM      6  C   UNL     1      -7.647  11.451  68.037  0.00  0.00    -0.000 A 
ATOM      7  C   UNL     1      -6.619  12.224  68.557  0.00  0.00    +0.001 A 
ATOM      8  C   UNL     1      -6.950  13.519  68.933  0.00  0.00    +0.011 A 
ENDBRANCH   1   4
BRANCH   1   9
ATOM      9  C   UNL     1     -11.218  14.213  68.205  0.00  0.00    +0.004 A 
ATOM     10  C   UNL     1     -11.437  13.206  69.130  0.00  0.00    -0.002 A 
ATOM     11  C   UNL     1     -12.175  13.398  70.285  0.00  0.00    -0.000 A 
ATOM     12  C   UNL     1     -12.323  14.712  70.703  0.00  0.00    -0.000 A 
ATOM     13  C   UNL     1     -11.949  15.765  69.880  0.00  0.00    -0.000 A 
ATOM     14  C   UNL     1     -11.733  15.458  68.546  0.00  0.00    -0.002 A 
ENDBRANCH   1   9
BRANCH   1  15
ATOM     15  C   UNL     1     -10.829  13.212  66.020  0.00  0.00    +0.004 A 
ATOM     16  C   UNL     1     -12.202  13.220  65.808  0.00  0.00    -0.002 A 
ATOM     17  C   UNL     1     -12.774  12.622  64.697  0.00  0.00    -0.000 A 
ATOM     18  C   UNL     1     -11.891  12.114  63.751  0.00  0.00    -0.000 A 
ATOM     19  C   UNL     1     -10.565  12.455  63.786  0.00  0.00    -0.000 A 
ATOM     20  C   UNL     1     -10.064  13.137  64.862  0.00  0.00    -0.002 A 
ENDBRANCH   1  15
BRANCH   1  21
ATOM     21  N   UNL     1      -9.904  15.310  66.514  0.00  0.00    -0.301 N 
ATOM     22  C   UNL     1      -8.688  15.743  66.128  0.00  0.00    +0.179 A 
ATOM     23  N   UNL     1      -8.741  17.097  66.157  0.00  0.00    -0.222 NA
ATOM     24  C   UNL     1     -10.045  17.442  66.168  0.00  0.00    +0.119 A 
ATOM     25  C   UNL     1     -10.754  16.253  66.049  0.00  0.00    +0.099 A 
ENDBRANCH   1  21
TORSDOF 4
ENDMDL
