MODEL 1
REMARK VINA RESULT:      -7.5      0.000      0.000
REMARK  Name = 
REMARK  7 active torsions:
REMARK  status: ('A' for Active; 'I' for Inactive)
REMARK    1  A    between atoms: N_2  and  C_3
REMARK    2  A    between atoms: C_3  and  C_5
REMARK    3  A    between atoms: C_10  and  O_11
REMARK    4  A    between atoms: O_11  and  C_12
REMARK    5  A    between atoms: C_18  and  O_19
REMARK    6  A    between atoms: O_19  and  C_20
REMARK    7  A    between atoms: C_26  and  N_27
REMARK                            x       y       z     vdW  Elec       q    Type
REMARK                         _______ _______ _______ _____ _____    ______ ____
ROOT
ATOM      1  C   UNL     1     -10.356  17.414  67.821  0.00  0.00    +0.168 C 
ATOM      2  C   UNL     1      -8.699  17.481  68.254  0.00  0.00    +0.209 C 
ATOM      3  O   UNL     1      -7.992  17.600  66.955  0.00  0.00    -0.218 OA
ATOM      4  C   UNL     1      -8.662  19.170  68.589  0.00  0.00    +0.168 C 
ATOM      5  C   UNL     1     -10.098  19.537  67.734  0.00  0.00    +0.123 C 
ATOM      6  N   UNL     1      -9.813  21.057  67.575  0.00  0.00    -0.130 NA
ATOM      7  C   UNL     1      -9.552  19.118  66.245  0.00  0.00    +0.043 C 
ATOM      8  C   UNL     1     -10.334  17.683  66.131  0.00  0.00    +0.123 C 
ATOM      9  N   UNL     1      -9.174  16.717  65.731  0.00  0.00    -0.130 NA
ENDROOT
BRANCH   1  10
ATOM     10  O   UNL     1     -10.360  15.927  67.798  0.00  0.00    -0.328 OA
BRANCH  10  13
ATOM     11  C   UNL     1     -12.397  14.932  70.461  0.00  0.00    +0.134 C 
ATOM     12  O   UNL     1     -11.017  15.100  69.835  0.00  0.00    -0.331 OA
ATOM     13  C   UNL     1     -11.642  15.505  68.505  0.00  0.00    +0.253 C 
ATOM     14  C   UNL     1     -11.704  13.915  67.808  0.00  0.00    +0.148 C 
ATOM     15  N   UNL     1     -10.210  13.796  67.384  0.00  0.00    -0.128 NA
ATOM     16  C   UNL     1     -11.403  13.040  69.142  0.00  0.00    +0.027 C 
ATOM     17  C   UNL     1     -12.399  13.324  70.158  0.00  0.00    +0.033 C 
BRANCH  11  18
ATOM     18  C   UNL     1     -11.820  14.845  72.083  0.00  0.00    +0.100 C 
ATOM     19  C   UNL     1     -11.861  16.454  72.339  0.00  0.00    +0.021 C 
BRANCH  18  21
ATOM     20  C   UNL     1     -13.219  14.839  73.239  0.00  0.00    +0.107 C 
ATOM     21  N   UNL     1     -13.218  14.621  72.742  0.00  0.00    -0.215 NA
ENDBRANCH  18  21
ENDBRANCH  11  18
ENDBRANCH  10  13
ENDBRANCH   1  10
BRANCH   4  22
ATOM     22  O   UNL     1      -7.681  19.567  67.516  0.00  0.00    -0.327 OA
BRANCH  22  23
ATOM     23  C   UNL     1      -6.781  20.220  68.568  0.00  0.00    +0.268 C 
ATOM     24  C   UNL     1      -5.374  19.274  68.191  0.00  0.00    +0.226 C 
ATOM     25  O   UNL     1      -5.017  19.015  69.619  0.00  0.00    -0.216 OA
ATOM     26  C   UNL     1      -4.389  20.676  68.184  0.00  0.00    +0.138 C 
ATOM     27  C   UNL     1      -4.421  20.648  66.557  0.00  0.00    +0.171 C 
ATOM     28  O   UNL     1      -3.952  19.471  66.108  0.00  0.00    -0.222 OA
ATOM     29  C   UNL     1      -3.929  21.909  66.013  0.00  0.00    +0.037 C 
ATOM     30  C   UNL     1      -5.924  20.641  66.452  0.00  0.00    +0.176 C 
ATOM     31  O   UNL     1      -6.472  21.321  67.547  0.00  0.00    -0.326 OA
BRANCH  26  32
ATOM     32  N   UNL     1      -3.043  19.892  68.309  0.00  0.00    -0.213 NA
ATOM     33  C   UNL     1      -2.340  20.969  69.016  0.00  0.00    +0.108 C 
ENDBRANCH  26  32
ENDBRANCH  22  23
ENDBRANCH   4  22
TORSDOF 7
ENDMDL
MODEL 2
REMARK VINA RESULT:      -7.2      3.212      5.121
REMARK  Name = 
REMARK  7 active torsions:
REMARK  status: ('A' for Active; 'I' for Inactive)
REMARK    1  A    between atoms: N_2  and  C_3
REMARK    2  A    between atoms: C_3  and  C_5
REMARK    3  A    between atoms: C_10  and  O_11
REMARK    4  A    between atoms: O_11  and  C_12
REMARK    5  A    between atoms: C_18  and  O_19
REMARK    6  A    between atoms: O_19  and  C_20
REMARK    7  A    between atoms: C_26  and  N_27
REMARK                            x       y       z     vdW  Elec       q    Type
REMARK                         _______ _______ _______ _____ _____    ______ ____
ROOT
ATOM      1  C   UNL     1     -10.745  12.349  67.834  0.00  0.00    +0.168 C 
ATOM      2  C   UNL     1      -9.380  13.385  67.793  0.00  0.00    +0.209 C 
ATOM      3  O   UNL     1      -9.606  14.231  66.596  0.00  0.00    -0.218 OA
ATOM      4  C   UNL     1      -9.996  14.549  68.903  0.00  0.00    +0.168 C 
ATOM      5  C   UNL     1     -11.631  14.066  68.755  0.00  0.00    +0.123 C 
ATOM      6  N   UNL     1     -12.244  15.383  69.307  0.00  0.00    -0.130 NA
ATOM      7  C   UNL     1     -11.809  14.462  67.174  0.00  0.00    +0.043 C 
ATOM      8  C   UNL     1     -11.729  12.942  66.567  0.00  0.00    +0.123 C 
ATOM      9  N   UNL     1     -10.648  13.099  65.451  0.00  0.00    -0.130 NA
ENDROOT
BRANCH   1  10
ATOM     10  O   UNL     1     -10.042  11.282  67.074  0.00  0.00    -0.328 OA
BRANCH  10  13
ATOM     11  C   UNL     1     -10.924   8.976  69.552  0.00  0.00    +0.134 C 
ATOM     12  O   UNL     1     -10.185  10.235  69.111  0.00  0.00    -0.331 OA
ATOM     13  C   UNL     1     -10.541   9.963  67.654  0.00  0.00    +0.253 C 
ATOM     14  C   UNL     1      -9.116   9.053  67.253  0.00  0.00    +0.148 C 
ATOM     15  N   UNL     1      -8.128  10.244  67.078  0.00  0.00    -0.128 NA
ATOM     16  C   UNL     1      -8.549   8.795  68.754  0.00  0.00    +0.027 C 
ATOM     17  C   UNL     1      -9.544   8.097  69.547  0.00  0.00    +0.033 C 
BRANCH  11  18
ATOM     18  C   UNL     1     -10.920   9.376  71.228  0.00  0.00    +0.100 C 
ATOM     19  C   UNL     1     -12.209  10.368  71.145  0.00  0.00    +0.021 C 
BRANCH  18  21
ATOM     20  C   UNL     1     -11.969   8.249  72.190  0.00  0.00    +0.107 C 
ATOM     21  N   UNL     1     -11.784   8.157  71.689  0.00  0.00    -0.215 NA
ENDBRANCH  18  21
ENDBRANCH  11  18
ENDBRANCH  10  13
ENDBRANCH   1  10
BRANCH   4  22
ATOM     22  O   UNL     1     -10.045  15.722  67.959  0.00  0.00    -0.327 OA
BRANCH  22  23
ATOM     23  C   UNL     1      -9.131  16.522  68.892  0.00  0.00    +0.268 C 
ATOM     24  C   UNL     1      -8.067  17.082  67.638  0.00  0.00    +0.226 C 
ATOM     25  O   UNL     1      -6.818  16.818  68.414  0.00  0.00    -0.216 OA
ATOM     26  C   UNL     1      -8.128  18.681  68.251  0.00  0.00    +0.138 C 
ATOM     27  C   UNL     1      -9.171  19.061  67.062  0.00  0.00    +0.171 C 
ATOM     28  O   UNL     1      -8.618  18.800  65.864  0.00  0.00    -0.222 OA
ATOM     29  C   UNL     1      -9.809  20.345  67.329  0.00  0.00    +0.037 C 
ATOM     30  C   UNL     1     -10.154  17.967  67.389  0.00  0.00    +0.176 C 
ATOM     31  O   UNL     1     -10.109  17.695  68.762  0.00  0.00    -0.326 OA
BRANCH  26  32
ATOM     32  N   UNL     1      -6.858  19.166  67.481  0.00  0.00    -0.213 NA
ATOM     33  C   UNL     1      -6.482  20.169  68.485  0.00  0.00    +0.108 C 
ENDBRANCH  26  32
ENDBRANCH  22  23
ENDBRANCH   4  22
TORSDOF 7
ENDMDL
MODEL 3
REMARK VINA RESULT:      -7.1      2.930      4.863
REMARK  Name = 
REMARK  7 active torsions:
REMARK  status: ('A' for Active; 'I' for Inactive)
REMARK    1  A    between atoms: N_2  and  C_3
REMARK    2  A    between atoms: C_3  and  C_5
REMARK    3  A    between atoms: C_10  and  O_11
REMARK    4  A    between atoms: O_11  and  C_12
REMARK    5  A    between atoms: C_18  and  O_19
REMARK    6  A    between atoms: O_19  and  C_20
REMARK    7  A    between atoms: C_26  and  N_27
REMARK                            x       y       z     vdW  Elec       q    Type
REMARK                         _______ _______ _______ _____ _____    ______ ____
ROOT
ATOM      1  C   UNL     1     -10.093  14.876  67.195  0.00  0.00    +0.168 C 
ATOM      2  C   UNL     1      -9.355  16.096  66.245  0.00  0.00    +0.209 C 
ATOM      3  O   UNL     1      -9.644  17.351  66.981  0.00  0.00    -0.218 OA
ATOM      4  C   UNL     1      -7.773  15.912  66.899  0.00  0.00    +0.168 C 
ATOM      5  C   UNL     1      -8.275  15.079  68.307  0.00  0.00    +0.123 C 
ATOM      6  N   UNL     1      -6.989  15.361  69.134  0.00  0.00    -0.130 NA
ATOM      7  C   UNL     1      -9.150  16.304  68.957  0.00  0.00    +0.043 C 
ATOM      8  C   UNL     1     -10.635  15.725  68.578  0.00  0.00    +0.123 C 
ATOM      9  N   UNL     1     -11.292  16.959  67.882  0.00  0.00    -0.130 NA
ENDROOT
BRANCH   1  10
ATOM     10  O   UNL     1     -11.352  14.928  66.407  0.00  0.00    -0.328 OA
BRANCH  10  13
ATOM     11  C   UNL     1     -10.975  11.576  65.481  0.00  0.00    +0.134 C 
ATOM     12  O   UNL     1     -10.517  13.029  65.425  0.00  0.00    -0.331 OA
ATOM     13  C   UNL     1     -11.762  13.477  66.184  0.00  0.00    +0.253 C 
ATOM     14  C   UNL     1     -12.754  13.794  64.794  0.00  0.00    +0.148 C 
ATOM     15  N   UNL     1     -12.159  15.178  64.401  0.00  0.00    -0.128 NA
ATOM     16  C   UNL     1     -11.842  13.072  63.660  0.00  0.00    +0.027 C 
ATOM     17  C   UNL     1     -11.649  11.674  63.994  0.00  0.00    +0.033 C 
BRANCH  11  18
ATOM     18  C   UNL     1      -9.459  10.919  64.990  0.00  0.00    +0.100 C 
ATOM     19  C   UNL     1      -8.707  11.212  66.405  0.00  0.00    +0.021 C 
BRANCH  18  21
ATOM     20  C   UNL     1      -9.329   9.154  65.394  0.00  0.00    +0.107 C 
ATOM     21  N   UNL     1      -9.789   9.441  65.376  0.00  0.00    -0.215 NA
ENDBRANCH  18  21
ENDBRANCH  11  18
ENDBRANCH  10  13
ENDBRANCH   1  10
BRANCH   4  22
ATOM     22  O   UNL     1      -7.646  17.284  67.509  0.00  0.00    -0.327 OA
BRANCH  22  23
ATOM     23  C   UNL     1      -6.364  17.531  66.710  0.00  0.00    +0.268 C 
ATOM     24  C   UNL     1      -6.872  19.055  66.051  0.00  0.00    +0.226 C 
ATOM     25  O   UNL     1      -6.386  18.757  64.670  0.00  0.00    -0.216 OA
ATOM     26  C   UNL     1      -5.365  19.769  66.443  0.00  0.00    +0.138 C 
ATOM     27  C   UNL     1      -6.073  20.477  67.726  0.00  0.00    +0.171 C 
ATOM     28  O   UNL     1      -7.110  21.230  67.321  0.00  0.00    -0.222 OA
ATOM     29  C   UNL     1      -5.067  21.013  68.637  0.00  0.00    +0.037 C 
ATOM     30  C   UNL     1      -6.606  19.194  68.310  0.00  0.00    +0.176 C 
ATOM     31  O   UNL     1      -5.750  18.138  67.976  0.00  0.00    -0.326 OA
BRANCH  26  32
ATOM     32  N   UNL     1      -5.546  20.994  65.491  0.00  0.00    -0.213 NA
ATOM     33  C   UNL     1      -4.113  21.151  65.218  0.00  0.00    +0.108 C 
ENDBRANCH  26  32
ENDBRANCH  22  23
ENDBRANCH   4  22
TORSDOF 7
ENDMDL
MODEL 4
REMARK VINA RESULT:      -6.8      3.532      5.854
REMARK  Name = 
REMARK  7 active torsions:
REMARK  status: ('A' for Active; 'I' for Inactive)
REMARK    1  A    between atoms: N_2  and  C_3
REMARK    2  A    between atoms: C_3  and  C_5
REMARK    3  A    between atoms: C_10  and  O_11
REMARK    4  A    between atoms: O_11  and  C_12
REMARK    5  A    between atoms: C_18  and  O_19
REMARK    6  A    between atoms: O_19  and  C_20
REMARK    7  A    between atoms: C_26  and  N_27
REMARK                            x       y       z     vdW  Elec       q    Type
REMARK                         _______ _______ _______ _____ _____    ______ ____
ROOT
ATOM      1  C   UNL     1     -10.450  11.074  67.583  0.00  0.00    +0.168 C 
ATOM      2  C   UNL     1      -9.522  12.324  68.300  0.00  0.00    +0.209 C 
ATOM      3  O   UNL     1      -8.706  12.855  67.181  0.00  0.00    -0.218 OA
ATOM      4  C   UNL     1     -10.731  13.545  68.182  0.00  0.00    +0.168 C 
ATOM      5  C   UNL     1     -11.664  12.737  66.996  0.00  0.00    +0.123 C 
ATOM      6  N   UNL     1     -12.433  13.995  66.504  0.00  0.00    -0.130 NA
ATOM      7  C   UNL     1     -10.536  12.768  65.806  0.00  0.00    +0.043 C 
ATOM      8  C   UNL     1     -10.068  11.202  65.920  0.00  0.00    +0.123 C 
ATOM      9  N   UNL     1      -8.515  11.339  66.022  0.00  0.00    -0.130 NA
ENDROOT
BRANCH   1  10
ATOM     10  O   UNL     1      -9.454  10.032  67.950  0.00  0.00    -0.328 OA
BRANCH  10  13
ATOM     11  C   UNL     1     -11.417   8.574  70.451  0.00  0.00    +0.134 C 
ATOM     12  O   UNL     1     -10.468   9.669  69.976  0.00  0.00    -0.331 OA
ATOM     13  C   UNL     1     -10.243   8.937  68.658  0.00  0.00    +0.253 C 
ATOM     14  C   UNL     1      -8.852   8.024  69.157  0.00  0.00    +0.148 C 
ATOM     15  N   UNL     1      -7.784   9.151  69.032  0.00  0.00    -0.128 NA
ATOM     16  C   UNL     1      -8.942   8.279  70.759  0.00  0.00    +0.027 C 
ATOM     17  C   UNL     1     -10.220   7.813  71.264  0.00  0.00    +0.033 C 
BRANCH  11  18
ATOM     18  C   UNL     1     -12.041   9.478  71.779  0.00  0.00    +0.100 C 
ATOM     19  C   UNL     1     -12.754  10.617  70.858  0.00  0.00    +0.021 C 
BRANCH  18  21
ATOM     20  C   UNL     1     -13.690   8.906  72.281  0.00  0.00    +0.107 C 
ATOM     21  N   UNL     1     -13.362   8.656  71.929  0.00  0.00    -0.215 NA
ENDBRANCH  18  21
ENDBRANCH  11  18
ENDBRANCH  10  13
ENDBRANCH   1  10
BRANCH   4  22
ATOM     22  O   UNL     1      -9.990  14.475  67.257  0.00  0.00    -0.327 OA
BRANCH  22  23
ATOM     23  C   UNL     1      -9.792  15.471  68.403  0.00  0.00    +0.268 C 
ATOM     24  C   UNL     1      -8.314  16.142  67.785  0.00  0.00    +0.226 C 
ATOM     25  O   UNL     1      -7.620  16.142  69.108  0.00  0.00    -0.216 OA
ATOM     26  C   UNL     1      -8.877  17.735  68.063  0.00  0.00    +0.138 C 
ATOM     27  C   UNL     1      -9.199  17.862  66.473  0.00  0.00    +0.171 C 
ATOM     28  O   UNL     1      -8.081  17.639  65.759  0.00  0.00    -0.222 OA
ATOM     29  C   UNL     1     -10.036  19.028  66.210  0.00  0.00    +0.037 C 
ATOM     30  C   UNL     1     -10.066  16.632  66.411  0.00  0.00    +0.176 C 
ATOM     31  O   UNL     1     -10.701  16.446  67.646  0.00  0.00    -0.326 OA
BRANCH  26  32
ATOM     32  N   UNL     1      -7.464  18.394  67.972  0.00  0.00    -0.213 NA
ATOM     33  C   UNL     1      -7.800  19.528  68.841  0.00  0.00    +0.108 C 
ENDBRANCH  26  32
ENDBRANCH  22  23
ENDBRANCH   4  22
TORSDOF 7
ENDMDL
MODEL 5
REMARK VINA RESULT:      -6.7      4.033      6.428
REMARK  Name = 
REMARK  7 active torsions:
REMARK  status: ('A' for Active; 'I' for Inactive)
REMARK    1  A    between atoms: N_2  and  C_3
REMARK    2  A    between atoms: C_3  and  C_5
REMARK    3  A    between atoms: C_10  and  O_11
REMARK    4  A    between atoms: O_11  and  C_12
REMARK    5  A    between atoms: C_18  and  O_19
REMARK    6  A    between atoms: O_19  and  C_20
REMARK    7  A    between atoms: C_26  and  N_27
REMARK                            x       y       z     vdW  Elec       q    Type
REMARK                         _______ _______ _______ _____ _____    ______ ____
ROOT
ATOM      1  C   UNL     1     -10.875  12.335  65.957  0.00  0.00    +0.168 C 
ATOM      2  C   UNL     1      -9.706  13.586  66.035  0.00  0.00    +0.209 C 
ATOM      3  O   UNL     1     -10.402  14.766  65.467  0.00  0.00    -0.218 OA
ATOM      4  C   UNL     1     -10.008  14.021  67.674  0.00  0.00    +0.168 C 
ATOM      5  C   UNL     1     -11.544  13.273  67.761  0.00  0.00    +0.123 C 
ATOM      6  N   UNL     1     -12.048  14.070  68.996  0.00  0.00    -0.130 NA
ATOM      7  C   UNL     1     -12.287  14.222  66.648  0.00  0.00    +0.043 C 
ATOM      8  C   UNL     1     -12.282  13.143  65.416  0.00  0.00    +0.123 C 
ATOM      9  N   UNL     1     -11.666  13.985  64.255  0.00  0.00    -0.130 NA
ENDROOT
BRANCH   1  10
ATOM     10  O   UNL     1     -10.380  11.863  64.636  0.00  0.00    -0.328 OA
BRANCH  10  13
ATOM     11  C   UNL     1      -8.877   8.881  65.677  0.00  0.00    +0.134 C 
ATOM     12  O   UNL     1      -8.809  10.381  65.410  0.00  0.00    -0.331 OA
ATOM     13  C   UNL     1     -10.196  10.357  64.777  0.00  0.00    +0.253 C 
ATOM     14  C   UNL     1      -9.677  10.097  63.140  0.00  0.00    +0.148 C 
ATOM     15  N   UNL     1      -9.247  11.556  62.804  0.00  0.00    -0.128 NA
ATOM     16  C   UNL     1      -8.128   9.697  63.423  0.00  0.00    +0.027 C 
ATOM     17  C   UNL     1      -8.066   8.542  64.298  0.00  0.00    +0.033 C 
BRANCH  11  18
ATOM     18  C   UNL     1      -7.521   8.853  66.740  0.00  0.00    +0.100 C 
ATOM     19  C   UNL     1      -8.328   9.448  68.023  0.00  0.00    +0.021 C 
BRANCH  18  21
ATOM     20  C   UNL     1      -7.381   7.274  67.625  0.00  0.00    +0.107 C 
ATOM     21  N   UNL     1      -7.708   7.372  67.204  0.00  0.00    -0.215 NA
ENDBRANCH  18  21
ENDBRANCH  11  18
ENDBRANCH  10  13
ENDBRANCH   1  10
BRANCH   4  22
ATOM     22  O   UNL     1     -10.482  15.429  67.424  0.00  0.00    -0.327 OA
BRANCH  22  23
ATOM     23  C   UNL     1      -9.489  15.958  68.463  0.00  0.00    +0.268 C 
ATOM     24  C   UNL     1      -8.484  16.794  67.318  0.00  0.00    +0.226 C 
ATOM     25  O   UNL     1      -7.200  16.324  67.920  0.00  0.00    -0.216 OA
ATOM     26  C   UNL     1      -8.455  18.191  68.308  0.00  0.00    +0.138 C 
ATOM     27  C   UNL     1      -9.556  18.871  67.322  0.00  0.00    +0.171 C 
ATOM     28  O   UNL     1      -9.085  18.906  66.063  0.00  0.00    -0.222 OA
ATOM     29  C   UNL     1     -10.134  20.060  67.939  0.00  0.00    +0.037 C 
ATOM     30  C   UNL     1     -10.552  17.746  67.434  0.00  0.00    +0.176 C 
ATOM     31  O   UNL     1     -10.434  17.142  68.692  0.00  0.00    -0.326 OA
BRANCH  26  32
ATOM     32  N   UNL     1      -7.219  18.831  67.600  0.00  0.00    -0.213 NA
ATOM     33  C   UNL     1      -6.766  19.568  68.785  0.00  0.00    +0.108 C 
ENDBRANCH  26  32
ENDBRANCH  22  23
ENDBRANCH   4  22
TORSDOF 7
ENDMDL
MODEL 6
REMARK VINA RESULT:      -6.6      1.788      2.008
REMARK  Name = 
REMARK  7 active torsions:
REMARK  status: ('A' for Active; 'I' for Inactive)
REMARK    1  A    between atoms: N_2  and  C_3
REMARK    2  A    between atoms: C_3  and  C_5
REMARK    3  A    between atoms: C_10  and  O_11
REMARK    4  A    between atoms: O_11  and  C_12
REMARK    5  A    between atoms: C_18  and  O_19
REMARK    6  A    between atoms: O_19  and  C_20
REMARK    7  A    between atoms: C_26  and  N_27
REMARK                            x       y       z     vdW  Elec       q    Type
REMARK                         _______ _______ _______ _____ _____    ______ ____
ROOT
ATOM      1  C   UNL     1     -10.086  16.171  67.664  0.00  0.00    +0.168 C 
ATOM      2  C   UNL     1      -8.477  16.000  67.098  0.00  0.00    +0.209 C 
ATOM      3  O   UNL     1      -8.490  16.660  65.770  0.00  0.00    -0.218 OA
ATOM      4  C   UNL     1      -7.841  17.369  67.927  0.00  0.00    +0.168 C 
ATOM      5  C   UNL     1      -9.359  18.109  68.207  0.00  0.00    +0.123 C 
ATOM      6  N   UNL     1      -8.802  19.537  68.466  0.00  0.00    -0.130 NA
ATOM      7  C   UNL     1      -9.740  18.373  66.634  0.00  0.00    +0.043 C 
ATOM      8  C   UNL     1     -10.822  17.154  66.473  0.00  0.00    +0.123 C 
ATOM      9  N   UNL     1     -10.303  16.434  65.187  0.00  0.00    -0.130 NA
ENDROOT
BRANCH   1  10
ATOM     10  O   UNL     1     -10.489  14.845  67.123  0.00  0.00    -0.328 OA
BRANCH  10  13
ATOM     11  C   UNL     1     -12.395  14.190  69.981  0.00  0.00    +0.134 C 
ATOM     12  O   UNL     1     -11.045  14.400  69.304  0.00  0.00    -0.331 OA
ATOM     13  C   UNL     1     -11.709  14.421  67.932  0.00  0.00    +0.253 C 
ATOM     14  C   UNL     1     -11.552  12.724  67.595  0.00  0.00    +0.148 C 
ATOM     15  N   UNL     1     -10.053  12.714  67.175  0.00  0.00    -0.128 NA
ATOM     16  C   UNL     1     -11.147  12.206  69.080  0.00  0.00    +0.027 C 
ATOM     17  C   UNL     1     -12.180  12.569  70.032  0.00  0.00    +0.033 C 
BRANCH  11  18
ATOM     18  C   UNL     1     -11.824  14.534  71.571  0.00  0.00    +0.100 C 
ATOM     19  C   UNL     1     -11.775  16.149  71.363  0.00  0.00    +0.021 C 
BRANCH  18  21
ATOM     20  C   UNL     1     -13.180  14.488  72.776  0.00  0.00    +0.107 C 
ATOM     21  N   UNL     1     -13.233  14.580  72.244  0.00  0.00    -0.215 NA
ENDBRANCH  18  21
ENDBRANCH  11  18
ENDBRANCH  10  13
ENDBRANCH   1  10
BRANCH   4  22
ATOM     22  O   UNL     1      -7.444  18.172  66.716  0.00  0.00    -0.327 OA
BRANCH  22  23
ATOM     23  C   UNL     1      -5.994  18.210  67.206  0.00  0.00    +0.268 C 
ATOM     24  C   UNL     1      -5.303  17.643  65.717  0.00  0.00    +0.226 C 
ATOM     25  O   UNL     1      -4.360  16.689  66.377  0.00  0.00    -0.216 OA
ATOM     26  C   UNL     1      -4.111  18.873  65.759  0.00  0.00    +0.138 C 
ATOM     27  C   UNL     1      -4.970  19.696  64.649  0.00  0.00    +0.171 C 
ATOM     28  O   UNL     1      -5.145  18.940  63.551  0.00  0.00    -0.222 OA
ATOM     29  C   UNL     1      -4.492  21.070  64.545  0.00  0.00    +0.037 C 
ATOM     30  C   UNL     1      -6.251  19.698  65.443  0.00  0.00    +0.176 C 
ATOM     31  O   UNL     1      -5.951  19.690  66.811  0.00  0.00    -0.326 OA
BRANCH  26  32
ATOM     32  N   UNL     1      -3.170  18.181  64.721  0.00  0.00    -0.213 NA
ATOM     33  C   UNL     1      -1.938  18.761  65.269  0.00  0.00    +0.108 C 
ENDBRANCH  26  32
ENDBRANCH  22  23
ENDBRANCH   4  22
TORSDOF 7
ENDMDL
MODEL 7
REMARK VINA RESULT:      -6.4      2.877      8.582
REMARK  Name = 
REMARK  7 active torsions:
REMARK  status: ('A' for Active; 'I' for Inactive)
REMARK    1  A    between atoms: N_2  and  C_3
REMARK    2  A    between atoms: C_3  and  C_5
REMARK    3  A    between atoms: C_10  and  O_11
REMARK    4  A    between atoms: O_11  and  C_12
REMARK    5  A    between atoms: C_18  and  O_19
REMARK    6  A    between atoms: O_19  and  C_20
REMARK    7  A    between atoms: C_26  and  N_27
REMARK                            x       y       z     vdW  Elec       q    Type
REMARK                         _______ _______ _______ _____ _____    ______ ____
ROOT
ATOM      1  C   UNL     1      -8.520  19.307  67.350  0.00  0.00    +0.168 C 
ATOM      2  C   UNL     1      -8.081  17.658  67.510  0.00  0.00    +0.209 C 
ATOM      3  O   UNL     1      -9.102  17.101  68.430  0.00  0.00    -0.218 OA
ATOM      4  C   UNL     1      -8.872  17.114  66.080  0.00  0.00    +0.168 C 
ATOM      5  C   UNL     1      -9.890  18.482  65.927  0.00  0.00    +0.123 C 
ATOM      6  N   UNL     1     -10.937  17.807  64.998  0.00  0.00    -0.130 NA
ATOM      7  C   UNL     1     -10.737  18.250  67.312  0.00  0.00    +0.043 C 
ATOM      8  C   UNL     1      -9.997  19.408  68.206  0.00  0.00    +0.123 C 
ATOM      9  N   UNL     1      -9.605  18.616  69.493  0.00  0.00    -0.130 NA
ENDROOT
BRANCH   1  10
ATOM     10  O   UNL     1      -7.609  19.725  68.449  0.00  0.00    -0.328 OA
BRANCH  10  13
ATOM     11  C   UNL     1      -5.266  21.138  66.270  0.00  0.00    +0.134 C 
ATOM     12  O   UNL     1      -5.918  19.917  66.910  0.00  0.00    -0.331 OA
ATOM     13  C   UNL     1      -6.715  20.808  67.856  0.00  0.00    +0.253 C 
ATOM     14  C   UNL     1      -5.568  20.812  69.161  0.00  0.00    +0.148 C 
ATOM     15  N   UNL     1      -5.899  19.412  69.758  0.00  0.00    -0.128 NA
ATOM     16  C   UNL     1      -4.290  20.185  68.378  0.00  0.00    +0.027 C 
ATOM     17  C   UNL     1      -3.952  21.012  67.236  0.00  0.00    +0.033 C 
BRANCH  11  18
ATOM     18  C   UNL     1      -4.625  20.279  64.920  0.00  0.00    +0.100 C 
ATOM     19  C   UNL     1      -6.047  20.162  64.133  0.00  0.00    +0.021 C 
BRANCH  18  21
ATOM     20  C   UNL     1      -3.968  21.390  63.643  0.00  0.00    +0.107 C 
ATOM     21  N   UNL     1      -4.188  21.544  64.114  0.00  0.00    -0.215 NA
ENDBRANCH  18  21
ENDBRANCH  11  18
ENDBRANCH  10  13
ENDBRANCH   1  10
BRANCH   4  22
ATOM     22  O   UNL     1      -9.868  16.194  66.737  0.00  0.00    -0.327 OA
BRANCH  22  23
ATOM     23  C   UNL     1      -9.127  14.977  66.174  0.00  0.00    +0.268 C 
ATOM     24  C   UNL     1      -9.723  13.859  67.361  0.00  0.00    +0.226 C 
ATOM     25  O   UNL     1      -8.400  13.202  67.583  0.00  0.00    -0.216 OA
ATOM     26  C   UNL     1     -10.104  12.714  66.145  0.00  0.00    +0.138 C 
ATOM     27  C   UNL     1     -11.666  13.150  66.271  0.00  0.00    +0.171 C 
ATOM     28  O   UNL     1     -12.090  12.982  67.536  0.00  0.00    -0.222 OA
ATOM     29  C   UNL     1     -12.437  12.631  65.147  0.00  0.00    +0.037 C 
ATOM     30  C   UNL     1     -11.416  14.617  66.037  0.00  0.00    +0.176 C 
ATOM     31  O   UNL     1     -10.299  14.774  65.207  0.00  0.00    -0.326 OA
BRANCH  26  32
ATOM     32  N   UNL     1     -10.217  11.506  67.130  0.00  0.00    -0.213 NA
ATOM     33  C   UNL     1      -9.895  10.493  66.119  0.00  0.00    +0.108 C 
ENDBRANCH  26  32
ENDBRANCH  22  23
ENDBRANCH   4  22
TORSDOF 7
ENDMDL
MODEL 8
REMARK VINA RESULT:      -6.4      5.334     10.620
REMARK  Name = 
REMARK  7 active torsions:
REMARK  status: ('A' for Active; 'I' for Inactive)
REMARK    1  A    between atoms: N_2  and  C_3
REMARK    2  A    between atoms: C_3  and  C_5
REMARK    3  A    between atoms: C_10  and  O_11
REMARK    4  A    between atoms: O_11  and  C_12
REMARK    5  A    between atoms: C_18  and  O_19
REMARK    6  A    between atoms: O_19  and  C_20
REMARK    7  A    between atoms: C_26  and  N_27
REMARK                            x       y       z     vdW  Elec       q    Type
REMARK                         _______ _______ _______ _____ _____    ______ ____
ROOT
ATOM      1  C   UNL     1      -9.789  11.685  66.790  0.00  0.00    +0.168 C 
ATOM      2  C   UNL     1     -10.848  10.723  67.733  0.00  0.00    +0.209 C 
ATOM      3  O   UNL     1     -10.620   9.344  67.238  0.00  0.00    -0.218 OA
ATOM      4  C   UNL     1      -9.796  10.560  69.087  0.00  0.00    +0.168 C 
ATOM      5  C   UNL     1      -8.374  11.000  68.243  0.00  0.00    +0.123 C 
ATOM      6  N   UNL     1      -7.378  10.372  69.257  0.00  0.00    -0.130 NA
ATOM      7  C   UNL     1      -8.363   9.729  67.206  0.00  0.00    +0.043 C 
ATOM      8  C   UNL     1      -8.908  10.532  65.885  0.00  0.00    +0.123 C 
ATOM      9  N   UNL     1     -10.084   9.617  65.417  0.00  0.00    -0.130 NA
ENDROOT
BRANCH   1  10
ATOM     10  O   UNL     1     -10.845  11.981  65.785  0.00  0.00    -0.328 OA
BRANCH  10  13
ATOM     11  C   UNL     1     -10.149  15.383  65.361  0.00  0.00    +0.134 C 
ATOM     12  O   UNL     1     -10.856  14.253  66.103  0.00  0.00    -0.331 OA
ATOM     13  C   UNL     1     -10.387  13.242  65.062  0.00  0.00    +0.253 C 
ATOM     14  C   UNL     1     -11.772  13.352  64.020  0.00  0.00    +0.148 C 
ATOM     15  N   UNL     1     -12.748  12.463  64.847  0.00  0.00    -0.128 NA
ATOM     16  C   UNL     1     -12.453  14.690  64.641  0.00  0.00    +0.027 C 
ATOM     17  C   UNL     1     -11.521  15.799  64.573  0.00  0.00    +0.033 C 
BRANCH  11  18
ATOM     18  C   UNL     1     -10.284  16.520  66.648  0.00  0.00    +0.100 C 
ATOM     19  C   UNL     1      -9.078  15.880  67.537  0.00  0.00    +0.021 C 
BRANCH  18  21
ATOM     20  C   UNL     1      -9.260  17.993  66.373  0.00  0.00    +0.107 C 
ATOM     21  N   UNL     1      -9.353  17.600  66.011  0.00  0.00    -0.215 NA
ENDBRANCH  18  21
ENDBRANCH  11  18
ENDBRANCH  10  13
ENDBRANCH   1  10
BRANCH   4  22
ATOM     22  O   UNL     1      -9.616   9.066  69.024  0.00  0.00    -0.327 OA
BRANCH  22  23
ATOM     23  C   UNL     1      -9.970   8.952  70.510  0.00  0.00    +0.268 C 
ATOM     24  C   UNL     1     -11.073   7.625  70.314  0.00  0.00    +0.226 C 
ATOM     25  O   UNL     1     -12.111   8.197  71.224  0.00  0.00    -0.216 OA
ATOM     26  C   UNL     1     -10.360   6.790  71.628  0.00  0.00    +0.138 C 
ATOM     27  C   UNL     1      -9.575   5.847  70.559  0.00  0.00    +0.171 C 
ATOM     28  O   UNL     1     -10.458   5.237  69.749  0.00  0.00    -0.222 OA
ATOM     29  C   UNL     1      -8.517   5.091  71.220  0.00  0.00    +0.037 C 
ATOM     30  C   UNL     1      -8.943   6.991  69.809  0.00  0.00    +0.176 C 
ATOM     31  O   UNL     1      -8.733   8.064  70.685  0.00  0.00    -0.326 OA
BRANCH  26  32
ATOM     32  N   UNL     1     -11.557   5.806  71.827  0.00  0.00    -0.213 NA
ATOM     33  C   UNL     1     -11.188   5.439  73.199  0.00  0.00    +0.108 C 
ENDBRANCH  26  32
ENDBRANCH  22  23
ENDBRANCH   4  22
TORSDOF 7
ENDMDL
MODEL 9
REMARK VINA RESULT:      -6.3      2.471      9.118
REMARK  Name = 
REMARK  7 active torsions:
REMARK  status: ('A' for Active; 'I' for Inactive)
REMARK    1  A    between atoms: N_2  and  C_3
REMARK    2  A    between atoms: C_3  and  C_5
REMARK    3  A    between atoms: C_10  and  O_11
REMARK    4  A    between atoms: O_11  and  C_12
REMARK    5  A    between atoms: C_18  and  O_19
REMARK    6  A    between atoms: O_19  and  C_20
REMARK    7  A    between atoms: C_26  and  N_27
REMARK                            x       y       z     vdW  Elec       q    Type
REMARK                         _______ _______ _______ _____ _____    ______ ____
ROOT
ATOM      1  C   UNL     1      -7.169  19.693  66.936  0.00  0.00    +0.168 C 
ATOM      2  C   UNL     1      -7.402  18.049  66.514  0.00  0.00    +0.209 C 
ATOM      3  O   UNL     1      -7.400  17.340  67.817  0.00  0.00    -0.218 OA
ATOM      4  C   UNL     1      -9.119  18.127  66.401  0.00  0.00    +0.168 C 
ATOM      5  C   UNL     1      -9.275  19.577  67.297  0.00  0.00    +0.123 C 
ATOM      6  N   UNL     1     -10.777  19.392  67.652  0.00  0.00    -0.130 NA
ATOM      7  C   UNL     1      -8.705  18.991  68.718  0.00  0.00    +0.043 C 
ATOM      8  C   UNL     1      -7.218  19.675  68.645  0.00  0.00    +0.123 C 
ATOM      9  N   UNL     1      -6.289  18.450  68.917  0.00  0.00    -0.130 NA
ENDROOT
BRANCH   1  10
ATOM     10  O   UNL     1      -5.695  19.598  66.765  0.00  0.00    -0.328 OA
BRANCH  10  13
ATOM     11  C   UNL     1      -4.529  21.248  63.910  0.00  0.00    +0.134 C 
ATOM     12  O   UNL     1      -4.651  19.987  64.759  0.00  0.00    -0.331 OA
ATOM     13  C   UNL     1      -5.302  20.780  65.887  0.00  0.00    +0.253 C 
ATOM     14  C   UNL     1      -3.842  21.155  66.751  0.00  0.00    +0.148 C 
ATOM     15  N   UNL     1      -3.641  19.783  67.461  0.00  0.00    -0.128 NA
ATOM     16  C   UNL     1      -2.759  20.736  65.616  0.00  0.00    +0.027 C 
ATOM     17  C   UNL     1      -2.990  21.498  64.404  0.00  0.00    +0.033 C 
BRANCH  11  18
ATOM     18  C   UNL     1      -4.155  20.413  62.449  0.00  0.00    +0.100 C 
ATOM     19  C   UNL     1      -5.682  19.922  62.166  0.00  0.00    +0.021 C 
BRANCH  18  21
ATOM     20  C   UNL     1      -4.312  21.489  60.995  0.00  0.00    +0.107 C 
ATOM     21  N   UNL     1      -4.292  21.656  61.511  0.00  0.00    -0.215 NA
ENDBRANCH  18  21
ENDBRANCH  11  18
ENDBRANCH  10  13
ENDBRANCH   1  10
BRANCH   4  22
ATOM     22  O   UNL     1      -9.439  17.165  67.516  0.00  0.00    -0.327 OA
BRANCH  22  23
ATOM     23  C   UNL     1     -10.472  16.466  66.629  0.00  0.00    +0.268 C 
ATOM     24  C   UNL     1      -9.624  14.952  66.551  0.00  0.00    +0.226 C 
ATOM     25  O   UNL     1      -9.840  14.768  65.084  0.00  0.00    -0.216 OA
ATOM     26  C   UNL     1     -11.064  14.086  66.887  0.00  0.00    +0.138 C 
ATOM     27  C   UNL     1     -10.555  13.901  68.421  0.00  0.00    +0.171 C 
ATOM     28  O   UNL     1      -9.359  13.287  68.437  0.00  0.00    -0.222 OA
ATOM     29  C   UNL     1     -11.646  13.441  69.272  0.00  0.00    +0.037 C 
ATOM     30  C   UNL     1     -10.345  15.372  68.672  0.00  0.00    +0.176 C 
ATOM     31  O   UNL     1     -11.251  16.111  67.900  0.00  0.00    -0.326 OA
BRANCH  26  32
ATOM     32  N   UNL     1     -10.511  12.712  66.390  0.00  0.00    -0.213 NA
ATOM     33  C   UNL     1     -11.809  12.226  65.906  0.00  0.00    +0.108 C 
ENDBRANCH  26  32
ENDBRANCH  22  23
ENDBRANCH   4  22
TORSDOF 7
ENDMDL
