MODEL 1
REMARK VINA RESULT:      -7.6      0.000      0.000
REMARK  Name = 
REMARK  5 active torsions:
REMARK  status: ('A' for Active; 'I' for Inactive)
REMARK    1  A    between atoms: O_2  and  C_3
REMARK    2  A    between atoms: N_5  and  C_7
REMARK    3  A    between atoms: C_11  and  C_12
REMARK    4  A    between atoms: N_14  and  C_15
REMARK    5  A    between atoms: C_15  and  C_16
REMARK                            x       y       z     vdW  Elec       q    Type
REMARK                         _______ _______ _______ _____ _____    ______ ____
ROOT
ATOM      1  C   UNL     1     -10.645  16.050  66.456  0.00  0.00    +0.140 A 
ATOM      2  C   UNL     1     -10.956  15.561  67.717  0.00  0.00    +0.058 A 
ATOM      3  C   UNL     1     -11.626  14.360  67.523  0.00  0.00    +0.161 A 
ATOM      4  N   UNL     1     -11.958  13.634  68.618  0.00  0.00    -0.225 NA
ATOM      5  C   UNL     1     -12.159  14.330  69.763  0.00  0.00    +0.101 A 
ATOM      6  C   UNL     1     -11.208  15.302  70.046  0.00  0.00    +0.021 A 
ATOM      7  N   UNL     1     -11.572  14.077  66.198  0.00  0.00    -0.229 N 
ATOM      8  C   UNL     1     -10.485  15.837  68.987  0.00  0.00    +0.006 A 
ATOM      9  N   UNL     1     -11.231  15.198  65.596  0.00  0.00    -0.165 NA
ENDROOT
BRANCH   1  14
ATOM     10  C   UNL     1      -7.421  18.565  66.932  0.00  0.00    +0.127 A 
ATOM     11  C   UNL     1      -7.244  17.295  66.398  0.00  0.00    +0.188 A 
ATOM     12  N   UNL     1      -5.958  16.709  66.481  0.00  0.00    -0.106 NA
ATOM     13  N   UNL     1      -8.326  16.614  65.955  0.00  0.00    -0.206 NA
ATOM     14  C   UNL     1      -9.588  17.025  66.233  0.00  0.00    +0.185 A 
ATOM     15  N   UNL     1      -9.742  18.346  66.481  0.00  0.00    -0.206 NA
ATOM     16  C   UNL     1      -8.688  19.111  66.858  0.00  0.00    +0.188 A 
ATOM     17  N   UNL     1      -8.849  20.453  67.318  0.00  0.00    -0.106 NA
BRANCH  10  19
ATOM     18  C   UNL     1      -5.650  19.832  68.051  0.00  0.00    +0.409 C 
ATOM     19  N   UNL     1      -6.289  19.438  66.832  0.00  0.00    -0.218 N 
ATOM     20  C   UNL     1      -6.213  20.248  65.625  0.00  0.00    +0.124 C 
ATOM     21  O   UNL     1      -6.044  20.799  68.748  0.00  0.00    -0.226 OA
BRANCH  18  23
ATOM     22  C   UNL     1      -4.910  18.148  69.686  0.00  0.00    +0.257 C 
ATOM     23  O   UNL     1      -4.640  19.047  68.615  0.00  0.00    -0.430 OA
ENDBRANCH  18  23
ENDBRANCH  10  19
ENDBRANCH   1  14
BRANCH   7  24
ATOM     24  C   UNL     1     -12.351  12.979  65.630  0.00  0.00    +0.158 C 
BRANCH  24  25
ATOM     25  C   UNL     1     -11.398  11.949  65.112  0.00  0.00    +0.030 A 
ATOM     26  C   UNL     1     -11.417  11.729  63.739  0.00  0.00    +0.138 A 
ATOM     27  F   UNL     1     -12.600  11.730  63.066  0.00  0.00    -0.204 F 
ATOM     28  C   UNL     1     -10.269  11.146  63.218  0.00  0.00    +0.029 A 
ATOM     29  C   UNL     1      -9.266  10.669  64.053  0.00  0.00    +0.002 A 
ATOM     30  C   UNL     1      -9.536  10.498  65.405  0.00  0.00    -0.000 A 
ATOM     31  C   UNL     1     -10.595  11.201  65.964  0.00  0.00    -0.000 A 
ENDBRANCH  24  25
ENDBRANCH   7  24
TORSDOF 5
ENDMDL
MODEL 2
REMARK VINA RESULT:      -7.6      1.901      2.942
REMARK  Name = 
REMARK  5 active torsions:
REMARK  status: ('A' for Active; 'I' for Inactive)
REMARK    1  A    between atoms: O_2  and  C_3
REMARK    2  A    between atoms: N_5  and  C_7
REMARK    3  A    between atoms: C_11  and  C_12
REMARK    4  A    between atoms: N_14  and  C_15
REMARK    5  A    between atoms: C_15  and  C_16
REMARK                            x       y       z     vdW  Elec       q    Type
REMARK                         _______ _______ _______ _____ _____    ______ ____
ROOT
ATOM      1  C   UNL     1     -11.022  15.840  68.364  0.00  0.00    +0.140 A 
ATOM      2  C   UNL     1     -11.629  15.480  69.559  0.00  0.00    +0.058 A 
ATOM      3  C   UNL     1     -11.961  14.135  69.446  0.00  0.00    +0.161 A 
ATOM      4  N   UNL     1     -12.490  13.519  70.531  0.00  0.00    -0.225 NA
ATOM      5  C   UNL     1     -13.180  14.304  71.392  0.00  0.00    +0.101 A 
ATOM      6  C   UNL     1     -12.574  15.510  71.718  0.00  0.00    +0.021 A 
ATOM      7  N   UNL     1     -11.425  13.684  68.285  0.00  0.00    -0.229 N 
ATOM      8  C   UNL     1     -11.659  16.046  70.820  0.00  0.00    +0.006 A 
ATOM      9  N   UNL     1     -11.123  14.753  67.578  0.00  0.00    -0.165 NA
ENDROOT
BRANCH   1  14
ATOM     10  C   UNL     1      -8.256  18.593  67.052  0.00  0.00    +0.127 A 
ATOM     11  C   UNL     1      -9.606  18.774  66.780  0.00  0.00    +0.188 A 
ATOM     12  N   UNL     1      -9.961  19.594  65.682  0.00  0.00    -0.106 NA
ATOM     13  N   UNL     1     -10.518  18.054  67.476  0.00  0.00    -0.206 NA
ATOM     14  C   UNL     1     -10.152  17.001  68.247  0.00  0.00    +0.185 A 
ATOM     15  N   UNL     1      -8.884  17.019  68.716  0.00  0.00    -0.206 NA
ATOM     16  C   UNL     1      -7.930  17.775  68.117  0.00  0.00    +0.188 A 
ATOM     17  N   UNL     1      -6.548  17.665  68.458  0.00  0.00    -0.106 NA
BRANCH  10  19
ATOM     18  C   UNL     1      -6.453  19.570  65.716  0.00  0.00    +0.409 C 
ATOM     19  N   UNL     1      -7.415  19.717  66.766  0.00  0.00    -0.218 N 
ATOM     20  C   UNL     1      -7.231  20.669  67.852  0.00  0.00    +0.124 C 
ATOM     21  O   UNL     1      -5.321  19.059  65.891  0.00  0.00    -0.226 OA
BRANCH  18  23
ATOM     22  C   UNL     1      -5.928  20.586  63.535  0.00  0.00    +0.257 C 
ATOM     23  O   UNL     1      -6.796  19.847  64.389  0.00  0.00    -0.430 OA
ENDBRANCH  18  23
ENDBRANCH  10  19
ENDBRANCH   1  14
BRANCH   7  24
ATOM     24  C   UNL     1     -11.755  12.357  67.769  0.00  0.00    +0.158 C 
BRANCH  24  25
ATOM     25  C   UNL     1     -11.523  12.358  66.292  0.00  0.00    +0.030 A 
ATOM     26  C   UNL     1     -10.297  11.863  65.862  0.00  0.00    +0.138 A 
ATOM     27  F   UNL     1      -9.167  12.139  66.568  0.00  0.00    -0.204 F 
ATOM     28  C   UNL     1     -10.261  11.444  64.538  0.00  0.00    +0.029 A 
ATOM     29  C   UNL     1     -11.331  11.677  63.684  0.00  0.00    +0.002 A 
ATOM     30  C   UNL     1     -12.310  12.588  64.059  0.00  0.00    -0.000 A 
ATOM     31  C   UNL     1     -12.449  12.894  65.406  0.00  0.00    -0.000 A 
ENDBRANCH  24  25
ENDBRANCH   7  24
TORSDOF 5
ENDMDL
MODEL 3
REMARK VINA RESULT:      -7.5      3.469      4.441
REMARK  Name = 
REMARK  5 active torsions:
REMARK  status: ('A' for Active; 'I' for Inactive)
REMARK    1  A    between atoms: O_2  and  C_3
REMARK    2  A    between atoms: N_5  and  C_7
REMARK    3  A    between atoms: C_11  and  C_12
REMARK    4  A    between atoms: N_14  and  C_15
REMARK    5  A    between atoms: C_15  and  C_16
REMARK                            x       y       z     vdW  Elec       q    Type
REMARK                         _______ _______ _______ _____ _____    ______ ____
ROOT
ATOM      1  C   UNL     1     -11.184  13.969  68.623  0.00  0.00    +0.140 A 
ATOM      2  C   UNL     1     -11.778  14.275  69.840  0.00  0.00    +0.058 A 
ATOM      3  C   UNL     1     -12.302  13.086  70.335  0.00  0.00    +0.161 A 
ATOM      4  N   UNL     1     -12.859  13.105  71.570  0.00  0.00    -0.225 NA
ATOM      5  C   UNL     1     -13.391  14.284  71.973  0.00  0.00    +0.101 A 
ATOM      6  C   UNL     1     -12.606  15.405  71.735  0.00  0.00    +0.021 A 
ATOM      7  N   UNL     1     -11.890  12.090  69.512  0.00  0.00    -0.229 N 
ATOM      8  C   UNL     1     -11.668  15.342  70.712  0.00  0.00    +0.006 A 
ATOM      9  N   UNL     1     -11.474  12.674  68.407  0.00  0.00    -0.165 NA
ENDROOT
BRANCH   1  14
ATOM     10  C   UNL     1      -8.660  17.094  67.724  0.00  0.00    +0.127 A 
ATOM     11  C   UNL     1      -8.228  16.062  68.546  0.00  0.00    +0.188 A 
ATOM     12  N   UNL     1      -7.155  16.320  69.433  0.00  0.00    -0.106 NA
ATOM     13  N   UNL     1      -8.933  14.907  68.573  0.00  0.00    -0.206 NA
ATOM     14  C   UNL     1     -10.166  14.813  68.016  0.00  0.00    +0.185 A 
ATOM     15  N   UNL     1     -10.434  15.683  67.016  0.00  0.00    -0.206 NA
ATOM     16  C   UNL     1      -9.720  16.828  66.878  0.00  0.00    +0.188 A 
ATOM     17  N   UNL     1     -10.102  17.857  65.964  0.00  0.00    -0.106 NA
BRANCH  10  19
ATOM     18  C   UNL     1      -7.694  19.344  67.766  0.00  0.00    +0.409 C 
ATOM     19  N   UNL     1      -7.639  17.997  67.282  0.00  0.00    -0.218 N 
ATOM     20  C   UNL     1      -6.985  17.656  66.027  0.00  0.00    +0.124 C 
ATOM     21  O   UNL     1      -8.394  20.236  67.229  0.00  0.00    -0.226 OA
BRANCH  18  23
ATOM     22  C   UNL     1      -5.903  20.485  69.012  0.00  0.00    +0.257 C 
ATOM     23  O   UNL     1      -7.087  19.693  68.976  0.00  0.00    -0.430 OA
ENDBRANCH  18  23
ENDBRANCH  10  19
ENDBRANCH   1  14
BRANCH   7  24
ATOM     24  C   UNL     1     -12.428  10.738  69.640  0.00  0.00    +0.158 C 
BRANCH  24  25
ATOM     25  C   UNL     1     -11.543   9.968  70.567  0.00  0.00    +0.030 A 
ATOM     26  C   UNL     1     -12.162   9.385  71.666  0.00  0.00    +0.138 A 
ATOM     27  F   UNL     1     -13.150  10.052  72.323  0.00  0.00    -0.204 F 
ATOM     28  C   UNL     1     -11.467   8.330  72.246  0.00  0.00    +0.029 A 
ATOM     29  C   UNL     1     -10.175   8.019  71.846  0.00  0.00    +0.002 A 
ATOM     30  C   UNL     1      -9.462   8.938  71.086  0.00  0.00    -0.000 A 
ATOM     31  C   UNL     1     -10.167   9.904  70.380  0.00  0.00    -0.000 A 
ENDBRANCH  24  25
ENDBRANCH   7  24
TORSDOF 5
ENDMDL
MODEL 4
REMARK VINA RESULT:      -7.5      3.537      4.746
REMARK  Name = 
REMARK  5 active torsions:
REMARK  status: ('A' for Active; 'I' for Inactive)
REMARK    1  A    between atoms: O_2  and  C_3
REMARK    2  A    between atoms: N_5  and  C_7
REMARK    3  A    between atoms: C_11  and  C_12
REMARK    4  A    between atoms: N_14  and  C_15
REMARK    5  A    between atoms: C_15  and  C_16
REMARK                            x       y       z     vdW  Elec       q    Type
REMARK                         _______ _______ _______ _____ _____    ______ ____
ROOT
ATOM      1  C   UNL     1     -11.056  14.856  69.562  0.00  0.00    +0.140 A 
ATOM      2  C   UNL     1     -11.900  14.927  70.662  0.00  0.00    +0.058 A 
ATOM      3  C   UNL     1     -12.514  13.685  70.771  0.00  0.00    +0.161 A 
ATOM      4  N   UNL     1     -13.325  13.470  71.836  0.00  0.00    -0.225 NA
ATOM      5  C   UNL     1     -13.935  14.561  72.358  0.00  0.00    +0.101 A 
ATOM      6  C   UNL     1     -13.121  15.673  72.536  0.00  0.00    +0.021 A 
ATOM      7  N   UNL     1     -11.932  12.866  69.862  0.00  0.00    -0.229 N 
ATOM      8  C   UNL     1     -11.984  15.784  71.744  0.00  0.00    +0.006 A 
ATOM      9  N   UNL     1     -11.289  13.648  69.019  0.00  0.00    -0.165 NA
ENDROOT
BRANCH   1  14
ATOM     10  C   UNL     1      -7.955  17.034  67.953  0.00  0.00    +0.127 A 
ATOM     11  C   UNL     1      -9.221  17.594  68.059  0.00  0.00    +0.188 A 
ATOM     12  N   UNL     1      -9.548  18.672  67.201  0.00  0.00    -0.106 NA
ATOM     13  N   UNL     1     -10.135  17.003  68.865  0.00  0.00    -0.206 NA
ATOM     14  C   UNL     1      -9.934  15.764  69.377  0.00  0.00    +0.185 A 
ATOM     15  N   UNL     1      -8.645  15.376  69.507  0.00  0.00    -0.206 NA
ATOM     16  C   UNL     1      -7.663  15.971  68.787  0.00  0.00    +0.188 A 
ATOM     17  N   UNL     1      -6.331  15.457  68.748  0.00  0.00    -0.106 NA
BRANCH  10  19
ATOM     18  C   UNL     1      -6.290  17.789  66.325  0.00  0.00    +0.409 C 
ATOM     19  N   UNL     1      -6.905  17.946  67.608  0.00  0.00    -0.218 N 
ATOM     20  C   UNL     1      -6.211  18.571  68.725  0.00  0.00    +0.124 C 
ATOM     21  O   UNL     1      -5.350  16.986  66.110  0.00  0.00    -0.226 OA
BRANCH  18  23
ATOM     22  C   UNL     1      -6.679  19.818  64.985  0.00  0.00    +0.257 C 
ATOM     23  O   UNL     1      -6.824  18.416  65.195  0.00  0.00    -0.430 OA
ENDBRANCH  18  23
ENDBRANCH  10  19
ENDBRANCH   1  14
BRANCH   7  24
ATOM     24  C   UNL     1     -12.480  11.540  69.583  0.00  0.00    +0.158 C 
BRANCH  24  25
ATOM     25  C   UNL     1     -11.693  10.535  70.362  0.00  0.00    +0.030 A 
ATOM     26  C   UNL     1     -12.355   9.921  71.418  0.00  0.00    +0.138 A 
ATOM     27  F   UNL     1     -13.201  10.643  72.203  0.00  0.00    -0.204 F 
ATOM     28  C   UNL     1     -11.815   8.709  71.831  0.00  0.00    +0.029 A 
ATOM     29  C   UNL     1     -10.604   8.257  71.324  0.00  0.00    +0.002 A 
ATOM     30  C   UNL     1      -9.784   9.144  70.639  0.00  0.00    -0.000 A 
ATOM     31  C   UNL     1     -10.353  10.286  70.092  0.00  0.00    -0.000 A 
ENDBRANCH  24  25
ENDBRANCH   7  24
TORSDOF 5
ENDMDL
MODEL 5
REMARK VINA RESULT:      -7.4      3.363      4.411
REMARK  Name = 
REMARK  5 active torsions:
REMARK  status: ('A' for Active; 'I' for Inactive)
REMARK    1  A    between atoms: O_2  and  C_3
REMARK    2  A    between atoms: N_5  and  C_7
REMARK    3  A    between atoms: C_11  and  C_12
REMARK    4  A    between atoms: N_14  and  C_15
REMARK    5  A    between atoms: C_15  and  C_16
REMARK                            x       y       z     vdW  Elec       q    Type
REMARK                         _______ _______ _______ _____ _____    ______ ____
ROOT
ATOM      1  C   UNL     1     -11.416  14.570  69.254  0.00  0.00    +0.140 A 
ATOM      2  C   UNL     1     -12.169  14.499  70.418  0.00  0.00    +0.058 A 
ATOM      3  C   UNL     1     -12.503  13.161  70.592  0.00  0.00    +0.161 A 
ATOM      4  N   UNL     1     -13.167  12.816  71.722  0.00  0.00    -0.225 NA
ATOM      5  C   UNL     1     -13.947  13.774  72.279  0.00  0.00    +0.101 A 
ATOM      6  C   UNL     1     -13.368  15.033  72.376  0.00  0.00    +0.021 A 
ATOM      7  N   UNL     1     -11.837  12.452  69.648  0.00  0.00    -0.229 N 
ATOM      8  C   UNL     1     -12.344  15.351  71.492  0.00  0.00    +0.006 A 
ATOM      9  N   UNL     1     -11.437  13.325  68.747  0.00  0.00    -0.165 NA
ENDROOT
BRANCH   1  14
ATOM     10  C   UNL     1      -8.529  17.000  67.609  0.00  0.00    +0.127 A 
ATOM     11  C   UNL     1      -9.854  17.125  67.215  0.00  0.00    +0.188 A 
ATOM     12  N   UNL     1     -10.124  17.708  65.954  0.00  0.00    -0.106 NA
ATOM     13  N   UNL     1     -10.821  16.561  67.977  0.00  0.00    -0.206 NA
ATOM     14  C   UNL     1     -10.523  15.683  68.966  0.00  0.00    +0.185 A 
ATOM     15  N   UNL     1      -9.289  15.792  69.507  0.00  0.00    -0.206 NA
ATOM     16  C   UNL     1      -8.286  16.411  68.836  0.00  0.00    +0.188 A 
ATOM     17  N   UNL     1      -6.931  16.370  69.285  0.00  0.00    -0.106 NA
BRANCH  10  19
ATOM     18  C   UNL     1      -7.866  19.356  67.690  0.00  0.00    +0.409 C 
ATOM     19  N   UNL     1      -7.653  18.042  67.162  0.00  0.00    -0.218 N 
ATOM     20  C   UNL     1      -7.007  17.824  65.876  0.00  0.00    +0.124 C 
ATOM     21  O   UNL     1      -8.697  20.161  67.205  0.00  0.00    -0.226 OA
BRANCH  18  23
ATOM     22  C   UNL     1      -5.851  19.850  69.014  0.00  0.00    +0.257 C 
ATOM     23  O   UNL     1      -7.266  19.750  68.889  0.00  0.00    -0.430 OA
ENDBRANCH  18  23
ENDBRANCH  10  19
ENDBRANCH   1  14
BRANCH   7  24
ATOM     24  C   UNL     1     -12.120  11.035  69.432  0.00  0.00    +0.158 C 
BRANCH  24  25
ATOM     25  C   UNL     1     -11.055  10.236  70.111  0.00  0.00    +0.030 A 
ATOM     26  C   UNL     1     -11.455   9.490  71.214  0.00  0.00    +0.138 A 
ATOM     27  F   UNL     1     -12.360  10.004  72.091  0.00  0.00    -0.204 F 
ATOM     28  C   UNL     1     -10.618   8.433  71.548  0.00  0.00    +0.029 A 
ATOM     29  C   UNL     1      -9.391   8.265  70.919  0.00  0.00    +0.002 A 
ATOM     30  C   UNL     1      -8.863   9.313  70.175  0.00  0.00    -0.000 A 
ATOM     31  C   UNL     1      -9.726  10.296  69.709  0.00  0.00    -0.000 A 
ENDBRANCH  24  25
ENDBRANCH   7  24
TORSDOF 5
ENDMDL
MODEL 6
REMARK VINA RESULT:      -7.3      2.203      4.212
REMARK  Name = 
REMARK  5 active torsions:
REMARK  status: ('A' for Active; 'I' for Inactive)
REMARK    1  A    between atoms: O_2  and  C_3
REMARK    2  A    between atoms: N_5  and  C_7
REMARK    3  A    between atoms: C_11  and  C_12
REMARK    4  A    between atoms: N_14  and  C_15
REMARK    5  A    between atoms: C_15  and  C_16
REMARK                            x       y       z     vdW  Elec       q    Type
REMARK                         _______ _______ _______ _____ _____    ______ ____
ROOT
ATOM      1  C   UNL     1      -9.622  14.784  67.052  0.00  0.00    +0.140 A 
ATOM      2  C   UNL     1     -10.596  14.299  66.190  0.00  0.00    +0.058 A 
ATOM      3  C   UNL     1     -11.239  13.264  66.859  0.00  0.00    +0.161 A 
ATOM      4  N   UNL     1     -12.304  12.683  66.255  0.00  0.00    -0.225 NA
ATOM      5  C   UNL     1     -12.313  12.706  64.900  0.00  0.00    +0.101 A 
ATOM      6  C   UNL     1     -11.982  13.925  64.321  0.00  0.00    +0.021 A 
ATOM      7  N   UNL     1     -10.763  13.247  68.128  0.00  0.00    -0.229 N 
ATOM      8  C   UNL     1     -11.204  14.809  65.058  0.00  0.00    +0.006 A 
ATOM      9  N   UNL     1      -9.657  13.962  68.116  0.00  0.00    -0.165 NA
ENDROOT
BRANCH   1  14
ATOM     10  C   UNL     1      -7.350  18.179  67.551  0.00  0.00    +0.127 A 
ATOM     11  C   UNL     1      -6.981  17.224  66.613  0.00  0.00    +0.188 A 
ATOM     12  N   UNL     1      -5.627  17.176  66.204  0.00  0.00    -0.106 NA
ATOM     13  N   UNL     1      -7.888  16.291  66.237  0.00  0.00    -0.206 NA
ATOM     14  C   UNL     1      -9.048  16.114  66.916  0.00  0.00    +0.185 A 
ATOM     15  N   UNL     1      -9.505  17.185  67.602  0.00  0.00    -0.206 NA
ATOM     16  C   UNL     1      -8.672  18.197  67.950  0.00  0.00    +0.188 A 
ATOM     17  N   UNL     1      -9.073  19.239  68.841  0.00  0.00    -0.106 NA
BRANCH  10  19
ATOM     18  C   UNL     1      -5.782  19.757  68.575  0.00  0.00    +0.409 C 
ATOM     19  N   UNL     1      -6.637  19.421  67.477  0.00  0.00    -0.218 N 
ATOM     20  C   UNL     1      -7.216  20.438  66.611  0.00  0.00    +0.124 C 
ATOM     21  O   UNL     1      -6.196  20.321  69.617  0.00  0.00    -0.226 OA
BRANCH  18  23
ATOM     22  C   UNL     1      -3.489  19.811  67.683  0.00  0.00    +0.257 C 
ATOM     23  O   UNL     1      -4.455  19.320  68.607  0.00  0.00    -0.430 OA
ENDBRANCH  18  23
ENDBRANCH  10  19
ENDBRANCH   1  14
BRANCH   7  24
ATOM     24  C   UNL     1     -11.091  12.154  69.041  0.00  0.00    +0.158 C 
BRANCH  24  25
ATOM     25  C   UNL     1     -12.087  12.658  70.036  0.00  0.00    +0.030 A 
ATOM     26  C   UNL     1     -12.677  11.701  70.853  0.00  0.00    +0.138 A 
ATOM     27  F   UNL     1     -13.019  10.487  70.342  0.00  0.00    -0.204 F 
ATOM     28  C   UNL     1     -13.223  12.187  72.035  0.00  0.00    +0.029 A 
ATOM     29  C   UNL     1     -13.313  13.553  72.272  0.00  0.00    +0.002 A 
ATOM     30  C   UNL     1     -13.139  14.436  71.214  0.00  0.00    -0.000 A 
ATOM     31  C   UNL     1     -12.457  13.996  70.088  0.00  0.00    -0.000 A 
ENDBRANCH  24  25
ENDBRANCH   7  24
TORSDOF 5
ENDMDL
MODEL 7
REMARK VINA RESULT:      -7.3      5.817      9.418
REMARK  Name = 
REMARK  5 active torsions:
REMARK  status: ('A' for Active; 'I' for Inactive)
REMARK    1  A    between atoms: O_2  and  C_3
REMARK    2  A    between atoms: N_5  and  C_7
REMARK    3  A    between atoms: C_11  and  C_12
REMARK    4  A    between atoms: N_14  and  C_15
REMARK    5  A    between atoms: C_15  and  C_16
REMARK                            x       y       z     vdW  Elec       q    Type
REMARK                         _______ _______ _______ _____ _____    ______ ____
ROOT
ATOM      1  C   UNL     1     -11.799  11.948  69.170  0.00  0.00    +0.140 A 
ATOM      2  C   UNL     1     -11.819  12.352  67.841  0.00  0.00    +0.058 A 
ATOM      3  C   UNL     1     -11.995  13.730  67.849  0.00  0.00    +0.161 A 
ATOM      4  N   UNL     1     -11.956  14.381  66.661  0.00  0.00    -0.225 NA
ATOM      5  C   UNL     1     -12.332  13.668  65.571  0.00  0.00    +0.101 A 
ATOM      6  C   UNL     1     -11.805  12.386  65.485  0.00  0.00    +0.021 A 
ATOM      7  N   UNL     1     -11.922  14.140  69.139  0.00  0.00    -0.229 N 
ATOM      8  C   UNL     1     -11.408  11.762  66.661  0.00  0.00    +0.006 A 
ATOM      9  N   UNL     1     -12.071  13.059  69.877  0.00  0.00    -0.165 NA
ENDROOT
BRANCH   1  14
ATOM     10  C   UNL     1      -9.926   8.993  71.339  0.00  0.00    +0.127 A 
ATOM     11  C   UNL     1     -11.312   9.074  71.321  0.00  0.00    +0.188 A 
ATOM     12  N   UNL     1     -12.030   8.487  72.390  0.00  0.00    -0.106 NA
ATOM     13  N   UNL     1     -11.912   9.829  70.370  0.00  0.00    -0.206 NA
ATOM     14  C   UNL     1     -11.206  10.689  69.596  0.00  0.00    +0.185 A 
ATOM     15  N   UNL     1      -9.896  10.399  69.426  0.00  0.00    -0.206 NA
ATOM     16  C   UNL     1      -9.244   9.590  70.296  0.00  0.00    +0.188 A 
ATOM     17  N   UNL     1      -7.826   9.424  70.263  0.00  0.00    -0.106 NA
BRANCH  10  19
ATOM     18  C   UNL     1      -9.602   6.570  71.217  0.00  0.00    +0.409 C 
ATOM     19  N   UNL     1      -9.387   7.799  71.920  0.00  0.00    -0.218 N 
ATOM     20  C   UNL     1      -9.156   7.836  73.356  0.00  0.00    +0.124 C 
ATOM     21  O   UNL     1     -10.645   5.884  71.341  0.00  0.00    -0.226 OA
BRANCH  18  23
ATOM     22  C   UNL     1      -7.363   5.814  70.525  0.00  0.00    +0.257 C 
ATOM     23  O   UNL     1      -8.714   6.151  70.222  0.00  0.00    -0.430 OA
ENDBRANCH  18  23
ENDBRANCH  10  19
ENDBRANCH   1  14
BRANCH   7  24
ATOM     24  C   UNL     1     -12.261  15.510  69.514  0.00  0.00    +0.158 C 
BRANCH  24  25
ATOM     25  C   UNL     1     -12.555  15.535  70.980  0.00  0.00    +0.030 A 
ATOM     26  C   UNL     1     -13.786  15.018  71.370  0.00  0.00    +0.138 A 
ATOM     27  F   UNL     1     -14.892  15.251  70.612  0.00  0.00    -0.204 F 
ATOM     28  C   UNL     1     -13.868  14.625  72.699  0.00  0.00    +0.029 A 
ATOM     29  C   UNL     1     -12.841  14.901  73.592  0.00  0.00    +0.002 A 
ATOM     30  C   UNL     1     -11.869  15.829  73.239  0.00  0.00    -0.000 A 
ATOM     31  C   UNL     1     -11.680  16.112  71.892  0.00  0.00    -0.000 A 
ENDBRANCH  24  25
ENDBRANCH   7  24
TORSDOF 5
ENDMDL
MODEL 8
REMARK VINA RESULT:      -7.2      3.957      7.971
REMARK  Name = 
REMARK  5 active torsions:
REMARK  status: ('A' for Active; 'I' for Inactive)
REMARK    1  A    between atoms: O_2  and  C_3
REMARK    2  A    between atoms: N_5  and  C_7
REMARK    3  A    between atoms: C_11  and  C_12
REMARK    4  A    between atoms: N_14  and  C_15
REMARK    5  A    between atoms: C_15  and  C_16
REMARK                            x       y       z     vdW  Elec       q    Type
REMARK                         _______ _______ _______ _____ _____    ______ ____
ROOT
ATOM      1  C   UNL     1      -7.312  17.458  66.468  0.00  0.00    +0.140 A 
ATOM      2  C   UNL     1      -7.079  18.437  67.425  0.00  0.00    +0.058 A 
ATOM      3  C   UNL     1      -6.095  19.270  66.908  0.00  0.00    +0.161 A 
ATOM      4  N   UNL     1      -5.754  20.369  67.623  0.00  0.00    -0.225 NA
ATOM      5  C   UNL     1      -5.919  20.289  68.966  0.00  0.00    +0.101 A 
ATOM      6  C   UNL     1      -7.123  19.740  69.388  0.00  0.00    +0.021 A 
ATOM      7  N   UNL     1      -5.871  18.885  65.627  0.00  0.00    -0.229 N 
ATOM      8  C   UNL     1      -7.792  18.886  68.520  0.00  0.00    +0.006 A 
ATOM      9  N   UNL     1      -6.400  17.684  65.506  0.00  0.00    -0.165 NA
ENDROOT
BRANCH   1  14
ATOM     10  C   UNL     1     -10.274  14.795  65.429  0.00  0.00    +0.127 A 
ATOM     11  C   UNL     1      -9.333  14.453  66.391  0.00  0.00    +0.188 A 
ATOM     12  N   UNL     1      -9.100  13.078  66.639  0.00  0.00    -0.106 NA
ATOM     13  N   UNL     1      -8.578  15.430  66.947  0.00  0.00    -0.206 NA
ATOM     14  C   UNL     1      -8.542  16.682  66.427  0.00  0.00    +0.185 A 
ATOM     15  N   UNL     1      -9.627  17.062  65.715  0.00  0.00    -0.206 NA
ATOM     16  C   UNL     1     -10.473  16.141  65.189  0.00  0.00    +0.188 A 
ATOM     17  N   UNL     1     -11.507  16.496  64.271  0.00  0.00    -0.106 NA
BRANCH  10  19
ATOM     18  C   UNL     1     -11.691  13.383  64.017  0.00  0.00    +0.409 C 
ATOM     19  N   UNL     1     -11.391  13.904  65.316  0.00  0.00    -0.218 N 
ATOM     20  C   UNL     1     -12.406  14.021  66.354  0.00  0.00    +0.124 C 
ATOM     21  O   UNL     1     -12.391  13.998  63.178  0.00  0.00    -0.226 OA
BRANCH  18  23
ATOM     22  C   UNL     1     -10.860  11.099  64.413  0.00  0.00    +0.257 C 
ATOM     23  O   UNL     1     -11.074  12.216  63.556  0.00  0.00    -0.430 OA
ENDBRANCH  18  23
ENDBRANCH  10  19
ENDBRANCH   1  14
BRANCH   7  24
ATOM     24  C   UNL     1      -4.755  19.432  64.860  0.00  0.00    +0.158 C 
BRANCH  24  25
ATOM     25  C   UNL     1      -5.221  19.671  63.460  0.00  0.00    +0.030 A 
ATOM     26  C   UNL     1      -6.047  20.773  63.266  0.00  0.00    +0.138 A 
ATOM     27  F   UNL     1      -6.995  21.083  64.192  0.00  0.00    -0.204 F 
ATOM     28  C   UNL     1      -6.100  21.251  61.963  0.00  0.00    +0.029 A 
ATOM     29  C   UNL     1      -5.501  20.555  60.921  0.00  0.00    +0.002 A 
ATOM     30  C   UNL     1      -5.111  19.238  61.123  0.00  0.00    -0.000 A 
ATOM     31  C   UNL     1      -4.909  18.798  62.425  0.00  0.00    -0.000 A 
ENDBRANCH  24  25
ENDBRANCH   7  24
TORSDOF 5
ENDMDL
MODEL 9
REMARK VINA RESULT:      -7.1      5.051      8.870
REMARK  Name = 
REMARK  5 active torsions:
REMARK  status: ('A' for Active; 'I' for Inactive)
REMARK    1  A    between atoms: O_2  and  C_3
REMARK    2  A    between atoms: N_5  and  C_7
REMARK    3  A    between atoms: C_11  and  C_12
REMARK    4  A    between atoms: N_14  and  C_15
REMARK    5  A    between atoms: C_15  and  C_16
REMARK                            x       y       z     vdW  Elec       q    Type
REMARK                         _______ _______ _______ _____ _____    ______ ____
ROOT
ATOM      1  C   UNL     1     -11.808  12.739  68.292  0.00  0.00    +0.140 A 
ATOM      2  C   UNL     1     -11.795  13.073  66.945  0.00  0.00    +0.058 A 
ATOM      3  C   UNL     1     -11.607  14.448  66.880  0.00  0.00    +0.161 A 
ATOM      4  N   UNL     1     -11.465  15.011  65.655  0.00  0.00    -0.225 NA
ATOM      5  C   UNL     1     -12.071  14.373  64.625  0.00  0.00    +0.101 A 
ATOM      6  C   UNL     1     -11.899  12.995  64.592  0.00  0.00    +0.021 A 
ATOM      7  N   UNL     1     -11.361  14.882  68.140  0.00  0.00    -0.229 N 
ATOM      8  C   UNL     1     -11.615  12.343  65.785  0.00  0.00    +0.006 A 
ATOM      9  N   UNL     1     -11.745  13.913  68.945  0.00  0.00    -0.165 NA
ENDROOT
BRANCH   1  14
ATOM     10  C   UNL     1     -10.626   9.499  70.541  0.00  0.00    +0.127 A 
ATOM     11  C   UNL     1     -11.939   9.949  70.601  0.00  0.00    +0.188 A 
ATOM     12  N   UNL     1     -12.703   9.630  71.749  0.00  0.00    -0.106 NA
ATOM     13  N   UNL     1     -12.388  10.790  69.638  0.00  0.00    -0.206 NA
ATOM     14  C   UNL     1     -11.540  11.389  68.766  0.00  0.00    +0.185 A 
ATOM     15  N   UNL     1     -10.371  10.749  68.538  0.00  0.00    -0.206 NA
ATOM     16  C   UNL     1      -9.892   9.837  69.420  0.00  0.00    +0.188 A 
ATOM     17  N   UNL     1      -8.575   9.294  69.313  0.00  0.00    -0.106 NA
BRANCH  10  19
ATOM     18  C   UNL     1     -10.980   7.077  70.574  0.00  0.00    +0.409 C 
ATOM     19  N   UNL     1     -10.381   8.234  71.167  0.00  0.00    -0.218 N 
ATOM     20  C   UNL     1     -10.022   8.279  72.577  0.00  0.00    +0.124 C 
ATOM     21  O   UNL     1     -12.155   6.712  70.821  0.00  0.00    -0.226 OA
BRANCH  18  23
ATOM     22  C   UNL     1     -10.937   6.194  68.276  0.00  0.00    +0.257 C 
ATOM     23  O   UNL     1     -10.330   6.380  69.551  0.00  0.00    -0.430 OA
ENDBRANCH  18  23
ENDBRANCH  10  19
ENDBRANCH   1  14
BRANCH   7  24
ATOM     24  C   UNL     1     -11.313  16.310  68.449  0.00  0.00    +0.158 C 
BRANCH  24  25
ATOM     25  C   UNL     1      -9.914  16.789  68.224  0.00  0.00    +0.030 A 
ATOM     26  C   UNL     1      -9.771  17.909  67.412  0.00  0.00    +0.138 A 
ATOM     27  F   UNL     1     -10.555  18.054  66.310  0.00  0.00    -0.204 F 
ATOM     28  C   UNL     1      -8.581  18.607  67.572  0.00  0.00    +0.029 A 
ATOM     29  C   UNL     1      -7.556  18.103  68.362  0.00  0.00    +0.002 A 
ATOM     30  C   UNL     1      -7.595  16.769  68.750  0.00  0.00    -0.000 A 
ATOM     31  C   UNL     1      -8.816  16.110  68.737  0.00  0.00    -0.000 A 
ENDBRANCH  24  25
ENDBRANCH   7  24
TORSDOF 5
ENDMDL
