MODEL 1
REMARK VINA RESULT:      -5.8      0.000      0.000
REMARK  Name = 
REMARK  4 active torsions:
REMARK  status: ('A' for Active; 'I' for Inactive)
REMARK    1  A    between atoms: C_2  and  N_4
REMARK    2  A    between atoms: N_4  and  C_5
REMARK    3  A    between atoms: C_5  and  C_6
REMARK    4  A    between atoms: C_6  and  C_8
REMARK                            x       y       z     vdW  Elec       q    Type
REMARK                         _______ _______ _______ _____ _____    ______ ____
ROOT
ATOM      1  C   UNL     1     -10.967  14.658  67.062  0.00  0.00    +0.015 A 
ATOM      2  C   UNL     1     -11.946  13.788  66.728  0.00  0.00    +0.040 A 
ATOM      3  C   UNL     1     -12.145  13.572  65.372  0.00  0.00    +0.199 A 
ATOM      4  O   UNL     1     -13.097  12.602  65.040  0.00  0.00    -0.286 OA
ATOM      5  C   UNL     1     -11.982  14.696  64.573  0.00  0.00    +0.084 A 
ATOM      6  C   UNL     1     -11.159  15.739  64.976  0.00  0.00    +0.199 A 
ATOM      7  O   UNL     1     -11.215  16.958  64.291  0.00  0.00    -0.286 OA
ATOM      8  C   UNL     1     -10.598  15.726  66.249  0.00  0.00    +0.040 A 
ENDROOT
BRANCH   1   9
ATOM      9  C   UNL     1     -10.858  15.029  68.667  0.00  0.00    +0.192 C 
ATOM     10  O   UNL     1     -11.803  16.255  68.535  0.00  0.00    -0.217 OA
BRANCH   9  11
ATOM     11  C   UNL     1     -12.145  14.011  69.063  0.00  0.00    +0.126 C 
BRANCH  11  12
ATOM     12  N   UNL     1     -11.986  13.948  70.491  0.00  0.00    -0.216 NA
BRANCH  12  14
ATOM     13  C   UNL     1     -13.613  13.437  72.242  0.00  0.00    +0.019 C 
ATOM     14  C   UNL     1     -13.177  14.398  71.202  0.00  0.00    +0.073 C 
ATOM     15  C   UNL     1     -12.731  15.686  71.886  0.00  0.00    +0.019 C 
ENDBRANCH  12  14
ENDBRANCH  11  12
ENDBRANCH   9  11
ENDBRANCH   1   9
TORSDOF 4
ENDMDL
MODEL 2
REMARK VINA RESULT:      -5.6      1.691      2.216
REMARK  Name = 
REMARK  4 active torsions:
REMARK  status: ('A' for Active; 'I' for Inactive)
REMARK    1  A    between atoms: C_2  and  N_4
REMARK    2  A    between atoms: N_4  and  C_5
REMARK    3  A    between atoms: C_5  and  C_6
REMARK    4  A    between atoms: C_6  and  C_8
REMARK                            x       y       z     vdW  Elec       q    Type
REMARK                         _______ _______ _______ _____ _____    ______ ____
ROOT
ATOM      1  C   UNL     1     -11.009  14.395  68.814  0.00  0.00    +0.015 A 
ATOM      2  C   UNL     1     -11.627  13.224  69.090  0.00  0.00    +0.040 A 
ATOM      3  C   UNL     1     -11.645  12.281  68.072  0.00  0.00    +0.199 A 
ATOM      4  O   UNL     1     -12.205  11.041  68.399  0.00  0.00    -0.286 OA
ATOM      5  C   UNL     1     -11.796  12.804  66.795  0.00  0.00    +0.084 A 
ATOM      6  C   UNL     1     -11.386  14.098  66.507  0.00  0.00    +0.199 A 
ATOM      7  O   UNL     1     -11.783  14.688  65.301  0.00  0.00    -0.286 OA
ATOM      8  C   UNL     1     -10.946  14.930  67.531  0.00  0.00    +0.040 A 
ENDROOT
BRANCH   1   9
ATOM      9  C   UNL     1     -11.144  15.564  69.972  0.00  0.00    +0.192 C 
ATOM     10  O   UNL     1     -11.726  16.603  68.975  0.00  0.00    -0.217 OA
BRANCH   9  11
ATOM     11  C   UNL     1     -12.687  15.045  70.417  0.00  0.00    +0.126 C 
BRANCH  11  12
ATOM     12  N   UNL     1     -12.924  15.900  71.550  0.00  0.00    -0.216 NA
BRANCH  12  14
ATOM     13  C   UNL     1     -13.685  13.739  72.399  0.00  0.00    +0.019 C 
ATOM     14  C   UNL     1     -13.553  15.191  72.658  0.00  0.00    +0.073 C 
ATOM     15  C   UNL     1     -12.584  15.392  73.819  0.00  0.00    +0.019 C 
ENDBRANCH  12  14
ENDBRANCH  11  12
ENDBRANCH   9  11
ENDBRANCH   1   9
TORSDOF 4
ENDMDL
MODEL 3
REMARK VINA RESULT:      -5.5      3.021      6.317
REMARK  Name = 
REMARK  4 active torsions:
REMARK  status: ('A' for Active; 'I' for Inactive)
REMARK    1  A    between atoms: C_2  and  N_4
REMARK    2  A    between atoms: N_4  and  C_5
REMARK    3  A    between atoms: C_5  and  C_6
REMARK    4  A    between atoms: C_6  and  C_8
REMARK                            x       y       z     vdW  Elec       q    Type
REMARK                         _______ _______ _______ _____ _____    ______ ____
ROOT
ATOM      1  C   UNL     1     -12.052  14.841  71.359  0.00  0.00    +0.015 A 
ATOM      2  C   UNL     1     -11.748  15.696  72.361  0.00  0.00    +0.040 A 
ATOM      3  C   UNL     1     -12.708  15.854  73.351  0.00  0.00    +0.199 A 
ATOM      4  O   UNL     1     -12.345  16.669  74.429  0.00  0.00    -0.286 OA
ATOM      5  C   UNL     1     -14.020  15.832  72.898  0.00  0.00    +0.084 A 
ATOM      6  C   UNL     1     -14.357  15.156  71.734  0.00  0.00    +0.199 A 
ATOM      7  O   UNL     1     -15.618  15.365  71.163  0.00  0.00    -0.286 OA
ATOM      8  C   UNL     1     -13.358  14.608  70.937  0.00  0.00    +0.040 A 
ENDROOT
BRANCH   1   9
ATOM      9  C   UNL     1     -10.974  14.794  70.109  0.00  0.00    +0.192 C 
ATOM     10  O   UNL     1     -12.089  14.603  69.044  0.00  0.00    -0.217 OA
BRANCH   9  11
ATOM     11  C   UNL     1     -11.008  16.472  69.922  0.00  0.00    +0.126 C 
BRANCH  11  12
ATOM     12  N   UNL     1     -11.414  16.565  68.546  0.00  0.00    -0.216 NA
BRANCH  12  14
ATOM     13  C   UNL     1      -9.824  18.418  68.632  0.00  0.00    +0.019 C 
ATOM     14  C   UNL     1     -10.561  17.461  67.775  0.00  0.00    +0.073 C 
ATOM     15  C   UNL     1      -9.554  16.528  67.110  0.00  0.00    +0.019 C 
ENDBRANCH  12  14
ENDBRANCH  11  12
ENDBRANCH   9  11
ENDBRANCH   1   9
TORSDOF 4
ENDMDL
MODEL 4
REMARK VINA RESULT:      -5.4      1.417      2.703
REMARK  Name = 
REMARK  4 active torsions:
REMARK  status: ('A' for Active; 'I' for Inactive)
REMARK    1  A    between atoms: C_2  and  N_4
REMARK    2  A    between atoms: N_4  and  C_5
REMARK    3  A    between atoms: C_5  and  C_6
REMARK    4  A    between atoms: C_6  and  C_8
REMARK                            x       y       z     vdW  Elec       q    Type
REMARK                         _______ _______ _______ _____ _____    ______ ____
ROOT
ATOM      1  C   UNL     1     -11.408  15.132  68.293  0.00  0.00    +0.015 A 
ATOM      2  C   UNL     1     -10.732  15.703  67.271  0.00  0.00    +0.040 A 
ATOM      3  C   UNL     1     -11.066  15.275  65.993  0.00  0.00    +0.199 A 
ATOM      4  O   UNL     1     -10.426  15.938  64.940  0.00  0.00    -0.286 OA
ATOM      5  C   UNL     1     -11.367  13.923  65.892  0.00  0.00    +0.084 A 
ATOM      6  C   UNL     1     -11.852  13.221  66.986  0.00  0.00    +0.199 A 
ATOM      7  O   UNL     1     -11.898  11.823  66.936  0.00  0.00    -0.286 OA
ATOM      8  C   UNL     1     -11.912  13.835  68.233  0.00  0.00    +0.040 A 
ENDROOT
BRANCH   1   9
ATOM      9  C   UNL     1     -10.883  15.528  69.807  0.00  0.00    +0.192 C 
ATOM     10  O   UNL     1     -10.891  17.051  69.503  0.00  0.00    -0.217 OA
BRANCH   9  11
ATOM     11  C   UNL     1     -12.456  15.585  70.415  0.00  0.00    +0.126 C 
BRANCH  11  12
ATOM     12  N   UNL     1     -12.188  15.990  71.769  0.00  0.00    -0.216 NA
BRANCH  12  14
ATOM     13  C   UNL     1     -13.530  14.065  72.452  0.00  0.00    +0.019 C 
ATOM     14  C   UNL     1     -13.182  15.481  72.708  0.00  0.00    +0.073 C 
ATOM     15  C   UNL     1     -12.489  15.576  74.063  0.00  0.00    +0.019 C 
ENDBRANCH  12  14
ENDBRANCH  11  12
ENDBRANCH   9  11
ENDBRANCH   1   9
TORSDOF 4
ENDMDL
MODEL 5
REMARK VINA RESULT:      -5.4      2.701      3.799
REMARK  Name = 
REMARK  4 active torsions:
REMARK  status: ('A' for Active; 'I' for Inactive)
REMARK    1  A    between atoms: C_2  and  N_4
REMARK    2  A    between atoms: N_4  and  C_5
REMARK    3  A    between atoms: C_5  and  C_6
REMARK    4  A    between atoms: C_6  and  C_8
REMARK                            x       y       z     vdW  Elec       q    Type
REMARK                         _______ _______ _______ _____ _____    ______ ____
ROOT
ATOM      1  C   UNL     1     -10.507  15.046  66.930  0.00  0.00    +0.015 A 
ATOM      2  C   UNL     1     -11.330  13.972  66.934  0.00  0.00    +0.040 A 
ATOM      3  C   UNL     1     -11.668  13.449  65.694  0.00  0.00    +0.199 A 
ATOM      4  O   UNL     1     -12.444  12.285  65.714  0.00  0.00    -0.286 OA
ATOM      5  C   UNL     1     -11.846  14.393  64.692  0.00  0.00    +0.084 A 
ATOM      6  C   UNL     1     -11.200  15.621  64.752  0.00  0.00    +0.199 A 
ATOM      7  O   UNL     1     -11.594  16.643  63.881  0.00  0.00    -0.286 OA
ATOM      8  C   UNL     1     -10.476  15.968  65.887  0.00  0.00    +0.040 A 
ENDROOT
BRANCH   1   9
ATOM      9  C   UNL     1     -10.251  15.755  68.399  0.00  0.00    +0.192 C 
ATOM     10  O   UNL     1      -8.720  15.880  68.166  0.00  0.00    -0.217 OA
BRANCH   9  11
ATOM     11  C   UNL     1     -10.527  17.301  67.779  0.00  0.00    +0.126 C 
BRANCH  11  12
ATOM     12  N   UNL     1     -10.272  18.092  68.953  0.00  0.00    -0.216 NA
BRANCH  12  14
ATOM     13  C   UNL     1      -8.237  19.361  68.486  0.00  0.00    +0.019 C 
ATOM     14  C   UNL     1      -9.710  19.399  68.631  0.00  0.00    +0.073 C 
ATOM     15  C   UNL     1     -10.325  19.738  67.277  0.00  0.00    +0.019 C 
ENDBRANCH  12  14
ENDBRANCH  11  12
ENDBRANCH   9  11
ENDBRANCH   1   9
TORSDOF 4
ENDMDL
MODEL 6
REMARK VINA RESULT:      -5.3      3.092      6.217
REMARK  Name = 
REMARK  4 active torsions:
REMARK  status: ('A' for Active; 'I' for Inactive)
REMARK    1  A    between atoms: C_2  and  N_4
REMARK    2  A    between atoms: N_4  and  C_5
REMARK    3  A    between atoms: C_5  and  C_6
REMARK    4  A    between atoms: C_6  and  C_8
REMARK                            x       y       z     vdW  Elec       q    Type
REMARK                         _______ _______ _______ _____ _____    ______ ____
ROOT
ATOM      1  C   UNL     1     -12.141  15.733  70.985  0.00  0.00    +0.015 A 
ATOM      2  C   UNL     1     -13.304  15.087  70.739  0.00  0.00    +0.040 A 
ATOM      3  C   UNL     1     -14.361  15.372  71.591  0.00  0.00    +0.199 A 
ATOM      4  O   UNL     1     -15.583  14.769  71.271  0.00  0.00    -0.286 OA
ATOM      5  C   UNL     1     -14.003  15.571  72.918  0.00  0.00    +0.084 A 
ATOM      6  C   UNL     1     -12.731  16.017  73.249  0.00  0.00    +0.199 A 
ATOM      7  O   UNL     1     -12.312  15.959  74.583  0.00  0.00    -0.286 OA
ATOM      8  C   UNL     1     -11.760  16.138  72.261  0.00  0.00    +0.040 A 
ENDROOT
BRANCH   1   9
ATOM      9  C   UNL     1     -10.852  15.258  70.070  0.00  0.00    +0.192 C 
ATOM     10  O   UNL     1     -11.524  13.916  69.668  0.00  0.00    -0.217 OA
BRANCH   9  11
ATOM     11  C   UNL     1     -11.452  16.033  68.695  0.00  0.00    +0.126 C 
BRANCH  11  12
ATOM     12  N   UNL     1     -10.812  17.314  68.828  0.00  0.00    -0.216 NA
BRANCH  12  14
ATOM     13  C   UNL     1     -10.281  16.747  66.512  0.00  0.00    +0.019 C 
ATOM     14  C   UNL     1     -10.059  17.686  67.636  0.00  0.00    +0.073 C 
ATOM     15  C   UNL     1     -10.630  19.047  67.252  0.00  0.00    +0.019 C 
ENDBRANCH  12  14
ENDBRANCH  11  12
ENDBRANCH   9  11
ENDBRANCH   1   9
TORSDOF 4
ENDMDL
MODEL 7
REMARK VINA RESULT:      -5.3      3.100      4.418
REMARK  Name = 
REMARK  4 active torsions:
REMARK  status: ('A' for Active; 'I' for Inactive)
REMARK    1  A    between atoms: C_2  and  N_4
REMARK    2  A    between atoms: N_4  and  C_5
REMARK    3  A    between atoms: C_5  and  C_6
REMARK    4  A    between atoms: C_6  and  C_8
REMARK                            x       y       z     vdW  Elec       q    Type
REMARK                         _______ _______ _______ _____ _____    ______ ____
ROOT
ATOM      1  C   UNL     1     -10.824  14.882  66.214  0.00  0.00    +0.015 A 
ATOM      2  C   UNL     1     -11.103  14.713  64.902  0.00  0.00    +0.040 A 
ATOM      3  C   UNL     1     -12.208  13.929  64.602  0.00  0.00    +0.199 A 
ATOM      4  O   UNL     1     -12.541  13.836  63.246  0.00  0.00    -0.286 OA
ATOM      5  C   UNL     1     -12.399  12.844  65.447  0.00  0.00    +0.084 A 
ATOM      6  C   UNL     1     -11.924  12.869  66.751  0.00  0.00    +0.199 A 
ATOM      7  O   UNL     1     -11.896  11.681  67.491  0.00  0.00    -0.286 OA
ATOM      8  C   UNL     1     -11.133  13.929  67.180  0.00  0.00    +0.040 A 
ENDROOT
BRANCH   1   9
ATOM      9  C   UNL     1      -9.414  15.675  66.548  0.00  0.00    +0.192 C 
ATOM     10  O   UNL     1      -9.631  16.714  65.414  0.00  0.00    -0.217 OA
BRANCH   9  11
ATOM     11  C   UNL     1     -10.163  16.676  67.682  0.00  0.00    +0.126 C 
BRANCH  11  12
ATOM     12  N   UNL     1     -10.515  17.790  66.843  0.00  0.00    -0.216 NA
BRANCH  12  14
ATOM     13  C   UNL     1      -9.580  19.049  68.716  0.00  0.00    +0.019 C 
ATOM     14  C   UNL     1     -10.517  19.054  67.570  0.00  0.00    +0.073 C 
ATOM     15  C   UNL     1     -10.025  20.068  66.542  0.00  0.00    +0.019 C 
ENDBRANCH  12  14
ENDBRANCH  11  12
ENDBRANCH   9  11
ENDBRANCH   1   9
TORSDOF 4
ENDMDL
MODEL 8
REMARK VINA RESULT:      -5.3      1.488      2.469
REMARK  Name = 
REMARK  4 active torsions:
REMARK  status: ('A' for Active; 'I' for Inactive)
REMARK    1  A    between atoms: C_2  and  N_4
REMARK    2  A    between atoms: N_4  and  C_5
REMARK    3  A    between atoms: C_5  and  C_6
REMARK    4  A    between atoms: C_6  and  C_8
REMARK                            x       y       z     vdW  Elec       q    Type
REMARK                         _______ _______ _______ _____ _____    ______ ____
ROOT
ATOM      1  C   UNL     1     -11.747  14.333  67.115  0.00  0.00    +0.015 A 
ATOM      2  C   UNL     1     -10.606  15.043  66.965  0.00  0.00    +0.040 A 
ATOM      3  C   UNL     1     -10.534  15.868  65.851  0.00  0.00    +0.199 A 
ATOM      4  O   UNL     1      -9.388  16.665  65.755  0.00  0.00    -0.286 OA
ATOM      5  C   UNL     1     -11.129  15.354  64.706  0.00  0.00    +0.084 A 
ATOM      6  C   UNL     1     -12.164  14.433  64.798  0.00  0.00    +0.199 A 
ATOM      7  O   UNL     1     -12.565  13.740  63.650  0.00  0.00    -0.286 OA
ATOM      8  C   UNL     1     -12.522  13.914  66.037  0.00  0.00    +0.040 A 
ENDROOT
BRANCH   1   9
ATOM      9  C   UNL     1     -11.748  13.236  68.349  0.00  0.00    +0.192 C 
ATOM     10  O   UNL     1     -10.223  12.966  68.223  0.00  0.00    -0.217 OA
BRANCH   9  11
ATOM     11  C   UNL     1     -11.496  14.434  69.510  0.00  0.00    +0.126 C 
BRANCH  11  12
ATOM     12  N   UNL     1     -12.684  14.270  70.304  0.00  0.00    -0.216 NA
BRANCH  12  14
ATOM     13  C   UNL     1     -14.053  15.264  72.067  0.00  0.00    +0.019 C 
ATOM     14  C   UNL     1     -13.074  15.501  70.982  0.00  0.00    +0.073 C 
ATOM     15  C   UNL     1     -11.774  16.005  71.601  0.00  0.00    +0.019 C 
ENDBRANCH  12  14
ENDBRANCH  11  12
ENDBRANCH   9  11
ENDBRANCH   1   9
TORSDOF 4
ENDMDL
MODEL 9
REMARK VINA RESULT:      -5.2      2.683      6.346
REMARK  Name = 
REMARK  4 active torsions:
REMARK  status: ('A' for Active; 'I' for Inactive)
REMARK    1  A    between atoms: C_2  and  N_4
REMARK    2  A    between atoms: N_4  and  C_5
REMARK    3  A    between atoms: C_5  and  C_6
REMARK    4  A    between atoms: C_6  and  C_8
REMARK                            x       y       z     vdW  Elec       q    Type
REMARK                         _______ _______ _______ _____ _____    ______ ____
ROOT
ATOM      1  C   UNL     1     -11.937  15.319  71.056  0.00  0.00    +0.015 A 
ATOM      2  C   UNL     1     -11.991  16.304  71.981  0.00  0.00    +0.040 A 
ATOM      3  C   UNL     1     -12.206  15.907  73.293  0.00  0.00    +0.199 A 
ATOM      4  O   UNL     1     -12.168  16.924  74.253  0.00  0.00    -0.286 OA
ATOM      5  C   UNL     1     -13.075  14.834  73.443  0.00  0.00    +0.084 A 
ATOM      6  C   UNL     1     -13.237  13.906  72.423  0.00  0.00    +0.199 A 
ATOM      7  O   UNL     1     -14.297  12.995  72.490  0.00  0.00    -0.286 OA
ATOM      8  C   UNL     1     -12.633  14.120  71.189  0.00  0.00    +0.040 A 
ENDROOT
BRANCH   1   9
ATOM      9  C   UNL     1     -11.850  15.819  69.485  0.00  0.00    +0.192 C 
ATOM     10  O   UNL     1     -10.340  16.167  69.591  0.00  0.00    -0.217 OA
BRANCH   9  11
ATOM     11  C   UNL     1     -11.508  14.261  68.933  0.00  0.00    +0.126 C 
BRANCH  11  12
ATOM     12  N   UNL     1     -11.811  14.416  67.536  0.00  0.00    -0.216 NA
BRANCH  12  14
ATOM     13  C   UNL     1     -11.541  11.987  67.515  0.00  0.00    +0.019 C 
ATOM     14  C   UNL     1     -11.421  13.250  66.751  0.00  0.00    +0.073 C 
ATOM     15  C   UNL     1     -12.429  13.225  65.607  0.00  0.00    +0.019 C 
ENDBRANCH  12  14
ENDBRANCH  11  12
ENDBRANCH   9  11
ENDBRANCH   1   9
TORSDOF 4
ENDMDL
