MODEL 1
REMARK VINA RESULT:      -7.0      0.000      0.000
REMARK  Name = 
REMARK  8 active torsions:
REMARK  status: ('A' for Active; 'I' for Inactive)
REMARK    1  A    between atoms: O_2  and  N_3
REMARK    2  A    between atoms: C_4  and  C_5
REMARK    3  A    between atoms: C_4  and  C_25
REMARK    4  A    between atoms: N_7  and  CA_8
REMARK    5  A    between atoms: CA_12  and  C_13
REMARK    6  A    between atoms: C_16  and  C_17
REMARK    7  A    between atoms: C_17  and  O_18
REMARK    8  A    between atoms: O_18  and  C_19
REMARK                            x       y       z     vdW  Elec       q    Type
REMARK                         _______ _______ _______ _____ _____    ______ ____
ROOT
ATOM      1  CA  UNL     1      -8.938  17.834  66.453  0.00  0.00    +0.201 C 
ATOM      2  C   UNL     1      -8.398  17.755  68.065  0.00  0.00    +0.157 C 
ATOM      3  N   UNL     1      -7.153  18.403  67.473  0.00  0.00    -0.242 N 
ATOM      4  CA  UNL     1      -6.165  18.650  68.471  0.00  0.00    +0.131 C 
ATOM      5  C   UNL     1      -5.906  17.828  69.490  0.00  0.00    +0.030 C 
ATOM      6  C   UNL     1      -6.287  16.380  69.456  0.00  0.00    +0.086 C 
ATOM      7  S   UNL     1      -7.531  16.058  68.160  0.00  0.00    -0.114 S 
ATOM      8  C   UNL     1      -7.333  17.869  66.133  0.00  0.00    +0.253 C 
ATOM      9  O   UNL     1      -7.054  18.618  65.132  0.00  0.00    -0.273 OA
ENDROOT
BRANCH   4  10
ATOM     10  C   UNL     1      -5.295  19.808  68.211  0.00  0.00    +0.401 C 
ATOM     11  OXT UNL     1      -5.679  21.101  68.587  0.00  0.00    -0.239 OA
ATOM     12  O   UNL     1      -4.425  19.675  67.322  0.00  0.00    -0.239 OA
ENDBRANCH   4  10
BRANCH   1  14
ATOM     13  C   UNL     1     -10.478  15.907  65.948  0.00  0.00    +0.289 C 
ATOM     14  N   UNL     1      -9.146  16.253  66.247  0.00  0.00    -0.190 NA
ATOM     15  O   UNL     1     -10.741  16.331  64.781  0.00  0.00    -0.266 OA
BRANCH  13  17
ATOM     16  N   UNL     1     -11.527  13.833  66.189  0.00  0.00    -0.075 NA
ATOM     17  C   UNL     1     -11.351  15.022  66.695  0.00  0.00    +0.208 C 
BRANCH  17  18
ATOM     18  C   UNL     1     -11.416  15.090  68.166  0.00  0.00    +0.171 A 
ATOM     19  O   UNL     1     -11.833  16.106  68.871  0.00  0.00    -0.449 OA
ATOM     20  C   UNL     1     -12.242  15.757  70.060  0.00  0.00    +0.180 A 
ATOM     21  C   UNL     1     -12.119  14.398  70.177  0.00  0.00    +0.044 A 
ATOM     22  C   UNL     1     -11.565  13.972  68.979  0.00  0.00    +0.043 A 
ENDBRANCH  17  18
BRANCH  16  24
ATOM     23  C   UNL     1     -10.478  12.760  64.608  0.00  0.00    +0.288 C 
ATOM     24  O   UNL     1     -10.804  13.426  65.078  0.00  0.00    -0.373 OA
ENDBRANCH  16  24
ENDBRANCH  13  17
ENDBRANCH   1  14
BRANCH   5  25
ATOM     25  C   UNL     1      -4.645  18.135  70.245  0.00  0.00    +0.235 C 
BRANCH  25  26
ATOM     26  O   UNL     1      -4.929  18.647  71.521  0.00  0.00    -0.428 OA
BRANCH  26  27
ATOM     27  C   UNL     1      -4.635  20.000  71.712  0.00  0.00    +0.441 C 
ATOM     28  O   UNL     1      -5.619  20.783  71.875  0.00  0.00    -0.223 OA
ATOM     29  N   UNL     1      -3.481  20.300  72.503  0.00  0.00    -0.048 NA
ENDBRANCH  26  27
ENDBRANCH  25  26
ENDBRANCH   5  25
TORSDOF 8
ENDMDL
MODEL 2
REMARK VINA RESULT:      -6.8      2.813      4.326
REMARK  Name = 
REMARK  8 active torsions:
REMARK  status: ('A' for Active; 'I' for Inactive)
REMARK    1  A    between atoms: O_2  and  N_3
REMARK    2  A    between atoms: C_4  and  C_5
REMARK    3  A    between atoms: C_4  and  C_25
REMARK    4  A    between atoms: N_7  and  CA_8
REMARK    5  A    between atoms: CA_12  and  C_13
REMARK    6  A    between atoms: C_16  and  C_17
REMARK    7  A    between atoms: C_17  and  O_18
REMARK    8  A    between atoms: O_18  and  C_19
REMARK                            x       y       z     vdW  Elec       q    Type
REMARK                         _______ _______ _______ _____ _____    ______ ____
ROOT
ATOM      1  CA  UNL     1     -11.393  15.037  65.757  0.00  0.00    +0.201 C 
ATOM      2  C   UNL     1     -10.438  15.466  67.099  0.00  0.00    +0.157 C 
ATOM      3  N   UNL     1     -10.423  16.822  66.406  0.00  0.00    -0.242 N 
ATOM      4  CA  UNL     1      -9.677  17.783  67.150  0.00  0.00    +0.131 C 
ATOM      5  C   UNL     1      -8.552  17.510  67.813  0.00  0.00    +0.030 C 
ATOM      6  C   UNL     1      -7.715  16.310  67.492  0.00  0.00    +0.086 C 
ATOM      7  S   UNL     1      -8.660  15.092  66.516  0.00  0.00    -0.114 S 
ATOM      8  C   UNL     1     -10.622  16.302  65.063  0.00  0.00    +0.253 C 
ATOM      9  O   UNL     1     -11.381  16.952  64.261  0.00  0.00    -0.273 OA
ENDROOT
BRANCH   4  10
ATOM     10  C   UNL     1     -10.129  19.175  66.995  0.00  0.00    +0.401 C 
ATOM     11  OXT UNL     1     -10.959  19.777  67.950  0.00  0.00    -0.239 OA
ATOM     12  O   UNL     1     -10.091  19.660  65.843  0.00  0.00    -0.239 OA
ENDBRANCH   4  10
BRANCH   1  14
ATOM     13  C   UNL     1     -11.120  12.734  64.776  0.00  0.00    +0.289 C 
ATOM     14  N   UNL     1     -10.423  13.883  65.197  0.00  0.00    -0.190 NA
ATOM     15  O   UNL     1     -11.763  13.030  63.723  0.00  0.00    -0.266 OA
BRANCH  13  17
ATOM     16  N   UNL     1     -10.285  10.567  64.519  0.00  0.00    -0.075 NA
ATOM     17  C   UNL     1     -10.974  11.379  65.273  0.00  0.00    +0.208 C 
BRANCH  17  18
ATOM     18  C   UNL     1     -10.891  11.110  66.719  0.00  0.00    +0.171 A 
ATOM     19  O   UNL     1     -11.777  11.450  67.616  0.00  0.00    -0.449 OA
ATOM     20  C   UNL     1     -11.720  10.703  68.685  0.00  0.00    +0.180 A 
ATOM     21  C   UNL     1     -10.739   9.764  68.503  0.00  0.00    +0.044 A 
ATOM     22  C   UNL     1     -10.188  10.040  67.261  0.00  0.00    +0.043 A 
ENDBRANCH  17  18
BRANCH  16  24
ATOM     23  C   UNL     1      -9.188  10.846  62.657  0.00  0.00    +0.288 C 
ATOM     24  O   UNL     1      -9.633  11.036  63.389  0.00  0.00    -0.373 OA
ENDBRANCH  16  24
ENDBRANCH  13  17
ENDBRANCH   1  14
BRANCH   5  25
ATOM     25  C   UNL     1      -7.784  18.713  68.277  0.00  0.00    +0.235 C 
BRANCH  25  26
ATOM     26  O   UNL     1      -6.577  18.849  67.573  0.00  0.00    -0.428 OA
BRANCH  26  27
ATOM     27  C   UNL     1      -6.488  19.961  66.730  0.00  0.00    +0.441 C 
ATOM     28  O   UNL     1      -6.790  19.783  65.511  0.00  0.00    -0.223 OA
ATOM     29  N   UNL     1      -6.897  21.217  67.281  0.00  0.00    -0.048 NA
ENDBRANCH  26  27
ENDBRANCH  25  26
ENDBRANCH   5  25
TORSDOF 8
ENDMDL
MODEL 3
REMARK VINA RESULT:      -6.7      5.337      8.395
REMARK  Name = 
REMARK  8 active torsions:
REMARK  status: ('A' for Active; 'I' for Inactive)
REMARK    1  A    between atoms: O_2  and  N_3
REMARK    2  A    between atoms: C_4  and  C_5
REMARK    3  A    between atoms: C_4  and  C_25
REMARK    4  A    between atoms: N_7  and  CA_8
REMARK    5  A    between atoms: CA_12  and  C_13
REMARK    6  A    between atoms: C_16  and  C_17
REMARK    7  A    between atoms: C_17  and  O_18
REMARK    8  A    between atoms: O_18  and  C_19
REMARK                            x       y       z     vdW  Elec       q    Type
REMARK                         _______ _______ _______ _____ _____    ______ ____
ROOT
ATOM      1  CA  UNL     1     -10.602   9.323  67.432  0.00  0.00    +0.201 C 
ATOM      2  C   UNL     1     -11.347  10.828  67.707  0.00  0.00    +0.157 C 
ATOM      3  N   UNL     1     -11.009  11.042  66.237  0.00  0.00    -0.242 N 
ATOM      4  CA  UNL     1     -11.452  12.317  65.777  0.00  0.00    +0.131 C 
ATOM      5  C   UNL     1     -11.405  13.435  66.504  0.00  0.00    +0.030 C 
ATOM      6  C   UNL     1     -10.490  13.575  67.682  0.00  0.00    +0.086 C 
ATOM      7  S   UNL     1      -9.901  11.946  68.254  0.00  0.00    -0.114 S 
ATOM      8  C   UNL     1      -9.872  10.138  66.215  0.00  0.00    +0.253 C 
ATOM      9  O   UNL     1      -9.691   9.405  65.180  0.00  0.00    -0.273 OA
ENDROOT
BRANCH   4  10
ATOM     10  C   UNL     1     -11.809  12.373  64.351  0.00  0.00    +0.401 C 
ATOM     11  OXT UNL     1     -13.131  12.184  63.927  0.00  0.00    -0.239 OA
ATOM     12  O   UNL     1     -10.885  12.197  63.527  0.00  0.00    -0.239 OA
ENDBRANCH   4  10
BRANCH   1  14
ATOM     13  C   UNL     1      -9.439   8.488  69.504  0.00  0.00    +0.289 C 
ATOM     14  N   UNL     1      -9.428   9.493  68.517  0.00  0.00    -0.190 NA
ATOM     15  O   UNL     1      -9.094   7.397  68.955  0.00  0.00    -0.266 OA
BRANCH  13  17
ATOM     16  N   UNL     1      -8.494   9.018  71.574  0.00  0.00    -0.075 NA
ATOM     17  C   UNL     1      -9.574   8.658  70.938  0.00  0.00    +0.208 C 
BRANCH  17  18
ATOM     18  C   UNL     1     -10.836   9.144  71.525  0.00  0.00    +0.171 A 
ATOM     19  O   UNL     1     -11.531  10.169  71.112  0.00  0.00    -0.449 OA
ATOM     20  C   UNL     1     -12.787  10.095  71.459  0.00  0.00    +0.180 A 
ATOM     21  C   UNL     1     -12.978   8.922  72.141  0.00  0.00    +0.044 A 
ATOM     22  C   UNL     1     -11.727   8.326  72.210  0.00  0.00    +0.043 A 
ENDBRANCH  17  18
BRANCH  16  24
ATOM     23  C   UNL     1      -6.540   9.702  70.892  0.00  0.00    +0.288 C 
ATOM     24  O   UNL     1      -7.341   9.342  70.876  0.00  0.00    -0.373 OA
ENDBRANCH  16  24
ENDBRANCH  13  17
ENDBRANCH   1  14
BRANCH   5  25
ATOM     25  C   UNL     1     -11.646  14.700  65.734  0.00  0.00    +0.235 C 
BRANCH  25  26
ATOM     26  O   UNL     1     -10.735  15.703  66.104  0.00  0.00    -0.428 OA
BRANCH  26  27
ATOM     27  C   UNL     1     -10.612  16.771  65.211  0.00  0.00    +0.441 C 
ATOM     28  O   UNL     1     -11.343  16.741  64.175  0.00  0.00    -0.223 OA
ATOM     29  N   UNL     1     -10.426  18.069  65.787  0.00  0.00    -0.048 NA
ENDBRANCH  26  27
ENDBRANCH  25  26
ENDBRANCH   5  25
TORSDOF 8
ENDMDL
MODEL 4
REMARK VINA RESULT:      -6.6      1.496      3.071
REMARK  Name = 
REMARK  8 active torsions:
REMARK  status: ('A' for Active; 'I' for Inactive)
REMARK    1  A    between atoms: O_2  and  N_3
REMARK    2  A    between atoms: C_4  and  C_5
REMARK    3  A    between atoms: C_4  and  C_25
REMARK    4  A    between atoms: N_7  and  CA_8
REMARK    5  A    between atoms: CA_12  and  C_13
REMARK    6  A    between atoms: C_16  and  C_17
REMARK    7  A    between atoms: C_17  and  O_18
REMARK    8  A    between atoms: O_18  and  C_19
REMARK                            x       y       z     vdW  Elec       q    Type
REMARK                         _______ _______ _______ _____ _____    ______ ____
ROOT
ATOM      1  CA  UNL     1      -8.874  17.440  67.611  0.00  0.00    +0.201 C 
ATOM      2  C   UNL     1      -7.468  17.134  68.520  0.00  0.00    +0.157 C 
ATOM      3  N   UNL     1      -7.137  18.568  68.122  0.00  0.00    -0.242 N 
ATOM      4  CA  UNL     1      -5.887  18.987  68.666  0.00  0.00    +0.131 C 
ATOM      5  C   UNL     1      -4.814  18.202  68.775  0.00  0.00    +0.030 C 
ATOM      6  C   UNL     1      -4.653  16.963  67.949  0.00  0.00    +0.086 C 
ATOM      7  S   UNL     1      -6.246  16.441  67.229  0.00  0.00    -0.114 S 
ATOM      8  C   UNL     1      -7.921  18.564  66.899  0.00  0.00    +0.253 C 
ATOM      9  O   UNL     1      -8.572  19.623  66.585  0.00  0.00    -0.273 OA
ENDROOT
BRANCH   4  10
ATOM     10  C   UNL     1      -5.785  20.429  68.945  0.00  0.00    +0.401 C 
ATOM     11  OXT UNL     1      -5.974  20.931  70.238  0.00  0.00    -0.239 OA
ATOM     12  O   UNL     1      -5.920  21.206  67.974  0.00  0.00    -0.239 OA
ENDBRANCH   4  10
BRANCH   1  14
ATOM     13  C   UNL     1      -9.855  15.809  65.962  0.00  0.00    +0.289 C 
ATOM     14  N   UNL     1      -8.651  16.275  66.524  0.00  0.00    -0.190 NA
ATOM     15  O   UNL     1     -10.325  16.729  65.225  0.00  0.00    -0.266 OA
BRANCH  13  17
ATOM     16  N   UNL     1     -11.101  14.147  67.031  0.00  0.00    -0.075 NA
ATOM     17  C   UNL     1     -10.379  14.457  65.990  0.00  0.00    +0.208 C 
BRANCH  17  18
ATOM     18  C   UNL     1     -10.753  13.766  64.743  0.00  0.00    +0.171 A 
ATOM     19  O   UNL     1     -10.139  12.739  64.220  0.00  0.00    -0.449 OA
ATOM     20  C   UNL     1     -10.912  12.040  63.434  0.00  0.00    +0.180 A 
ATOM     21  C   UNL     1     -12.156  12.612  63.433  0.00  0.00    +0.044 A 
ATOM     22  C   UNL     1     -12.051  13.731  64.246  0.00  0.00    +0.043 A 
ENDBRANCH  17  18
BRANCH  16  24
ATOM     23  C   UNL     1     -11.722  15.292  68.778  0.00  0.00    +0.288 C 
ATOM     24  O   UNL     1     -11.439  15.112  67.967  0.00  0.00    -0.373 OA
ENDBRANCH  16  24
ENDBRANCH  13  17
ENDBRANCH   1  14
BRANCH   5  25
ATOM     25  C   UNL     1      -3.537  18.920  69.100  0.00  0.00    +0.235 C 
BRANCH  25  26
ATOM     26  O   UNL     1      -3.256  18.862  70.474  0.00  0.00    -0.428 OA
BRANCH  26  27
ATOM     27  C   UNL     1      -2.739  20.031  71.038  0.00  0.00    +0.441 C 
ATOM     28  O   UNL     1      -2.661  21.047  70.282  0.00  0.00    -0.223 OA
ATOM     29  N   UNL     1      -3.111  20.309  72.392  0.00  0.00    -0.048 NA
ENDBRANCH  26  27
ENDBRANCH  25  26
ENDBRANCH   5  25
TORSDOF 8
ENDMDL
MODEL 5
REMARK VINA RESULT:      -6.6      2.910      4.916
REMARK  Name = 
REMARK  8 active torsions:
REMARK  status: ('A' for Active; 'I' for Inactive)
REMARK    1  A    between atoms: O_2  and  N_3
REMARK    2  A    between atoms: C_4  and  C_5
REMARK    3  A    between atoms: C_4  and  C_25
REMARK    4  A    between atoms: N_7  and  CA_8
REMARK    5  A    between atoms: CA_12  and  C_13
REMARK    6  A    between atoms: C_16  and  C_17
REMARK    7  A    between atoms: C_17  and  O_18
REMARK    8  A    between atoms: O_18  and  C_19
REMARK                            x       y       z     vdW  Elec       q    Type
REMARK                         _______ _______ _______ _____ _____    ______ ____
ROOT
ATOM      1  CA  UNL     1     -11.571  14.079  67.927  0.00  0.00    +0.201 C 
ATOM      2  C   UNL     1     -10.605  15.115  68.870  0.00  0.00    +0.157 C 
ATOM      3  N   UNL     1     -10.615  15.958  67.601  0.00  0.00    -0.242 N 
ATOM      4  CA  UNL     1      -9.872  17.164  67.767  0.00  0.00    +0.131 C 
ATOM      5  C   UNL     1      -8.736  17.256  68.460  0.00  0.00    +0.030 C 
ATOM      6  C   UNL     1      -7.888  16.056  68.754  0.00  0.00    +0.086 C 
ATOM      7  S   UNL     1      -8.830  14.512  68.516  0.00  0.00    -0.114 S 
ATOM      8  C   UNL     1     -10.824  14.846  66.689  0.00  0.00    +0.253 C 
ATOM      9  O   UNL     1     -11.601  15.016  65.684  0.00  0.00    -0.273 OA
ENDROOT
BRANCH   4  10
ATOM     10  C   UNL     1     -10.343  18.299  66.958  0.00  0.00    +0.401 C 
ATOM     11  OXT UNL     1     -11.165  19.290  67.510  0.00  0.00    -0.239 OA
ATOM     12  O   UNL     1     -10.329  18.156  65.716  0.00  0.00    -0.239 OA
ENDBRANCH   4  10
BRANCH   1  14
ATOM     13  C   UNL     1     -11.278  11.579  67.866  0.00  0.00    +0.289 C 
ATOM     14  N   UNL     1     -10.594  12.804  67.988  0.00  0.00    -0.190 NA
ATOM     15  O   UNL     1     -11.708  11.487  66.676  0.00  0.00    -0.266 OA
BRANCH  13  17
ATOM     16  N   UNL     1     -10.360   9.595  68.691  0.00  0.00    -0.075 NA
ATOM     17  C   UNL     1     -11.307  10.484  68.816  0.00  0.00    +0.208 C 
BRANCH  17  18
ATOM     18  C   UNL     1     -11.790  10.691  70.193  0.00  0.00    +0.171 A 
ATOM     19  O   UNL     1     -12.301  11.794  70.670  0.00  0.00    -0.449 OA
ATOM     20  C   UNL     1     -13.068  11.584  71.705  0.00  0.00    +0.180 A 
ATOM     21  C   UNL     1     -13.109  10.236  71.945  0.00  0.00    +0.044 A 
ATOM     22  C   UNL     1     -12.271   9.665  70.999  0.00  0.00    +0.043 A 
ENDBRANCH  17  18
BRANCH  16  24
ATOM     23  C   UNL     1      -8.585   9.483  67.432  0.00  0.00    +0.288 C 
ATOM     24  O   UNL     1      -9.330   9.786  67.784  0.00  0.00    -0.373 OA
ENDBRANCH  16  24
ENDBRANCH  13  17
ENDBRANCH   1  14
BRANCH   5  25
ATOM     25  C   UNL     1      -7.977  18.536  68.263  0.00  0.00    +0.235 C 
BRANCH  25  26
ATOM     26  O   UNL     1      -6.777  18.314  67.569  0.00  0.00    -0.428 OA
BRANCH  26  27
ATOM     27  C   UNL     1      -6.761  18.733  66.235  0.00  0.00    +0.441 C 
ATOM     28  O   UNL     1      -7.099  17.878  65.361  0.00  0.00    -0.223 OA
ATOM     29  N   UNL     1      -7.199  20.071  65.978  0.00  0.00    -0.048 NA
ENDBRANCH  26  27
ENDBRANCH  25  26
ENDBRANCH   5  25
TORSDOF 8
ENDMDL
MODEL 6
REMARK VINA RESULT:      -6.6      2.181      3.286
REMARK  Name = 
REMARK  8 active torsions:
REMARK  status: ('A' for Active; 'I' for Inactive)
REMARK    1  A    between atoms: O_2  and  N_3
REMARK    2  A    between atoms: C_4  and  C_5
REMARK    3  A    between atoms: C_4  and  C_25
REMARK    4  A    between atoms: N_7  and  CA_8
REMARK    5  A    between atoms: CA_12  and  C_13
REMARK    6  A    between atoms: C_16  and  C_17
REMARK    7  A    between atoms: C_17  and  O_18
REMARK    8  A    between atoms: O_18  and  C_19
REMARK                            x       y       z     vdW  Elec       q    Type
REMARK                         _______ _______ _______ _____ _____    ______ ____
ROOT
ATOM      1  CA  UNL     1     -11.439  15.111  66.646  0.00  0.00    +0.201 C 
ATOM      2  C   UNL     1     -10.547  15.675  67.981  0.00  0.00    +0.157 C 
ATOM      3  N   UNL     1     -10.097  16.734  66.983  0.00  0.00    -0.242 N 
ATOM      4  CA  UNL     1      -9.201  17.670  67.580  0.00  0.00    +0.131 C 
ATOM      5  C   UNL     1      -8.266  17.347  68.475  0.00  0.00    +0.030 C 
ATOM      6  C   UNL     1      -7.754  15.947  68.615  0.00  0.00    +0.086 C 
ATOM      7  S   UNL     1      -8.885  14.752  67.828  0.00  0.00    -0.114 S 
ATOM      8  C   UNL     1     -10.288  15.911  65.801  0.00  0.00    +0.253 C 
ATOM      9  O   UNL     1     -10.758  16.459  64.742  0.00  0.00    -0.273 OA
ENDROOT
BRANCH   4  10
ATOM     10  C   UNL     1      -9.244  19.024  67.004  0.00  0.00    +0.401 C 
ATOM     11  OXT UNL     1     -10.110  20.000  67.514  0.00  0.00    -0.239 OA
ATOM     12  O   UNL     1      -8.805  19.161  65.842  0.00  0.00    -0.239 OA
ENDBRANCH   4  10
BRANCH   1  14
ATOM     13  C   UNL     1     -11.694  12.606  66.700  0.00  0.00    +0.289 C 
ATOM     14  N   UNL     1     -10.762  13.654  66.571  0.00  0.00    -0.190 NA
ATOM     15  O   UNL     1     -12.409  12.586  65.652  0.00  0.00    -0.266 OA
BRANCH  13  17
ATOM     16  N   UNL     1     -11.057  10.476  67.420  0.00  0.00    -0.075 NA
ATOM     17  C   UNL     1     -11.717  11.563  67.708  0.00  0.00    +0.208 C 
BRANCH  17  18
ATOM     18  C   UNL     1     -11.768  11.900  69.142  0.00  0.00    +0.171 A 
ATOM     19  O   UNL     1     -12.033  13.075  69.646  0.00  0.00    -0.449 OA
ATOM     20  C   UNL     1     -12.486  13.005  70.869  0.00  0.00    +0.180 A 
ATOM     21  C   UNL     1     -12.561  11.685  71.226  0.00  0.00    +0.044 A 
ATOM     22  C   UNL     1     -12.077  10.978  70.136  0.00  0.00    +0.043 A 
ENDBRANCH  17  18
BRANCH  16  24
ATOM     23  C   UNL     1      -9.910   9.902  65.658  0.00  0.00    +0.288 C 
ATOM     24  O   UNL     1     -10.282  10.406  66.273  0.00  0.00    -0.373 OA
ENDBRANCH  16  24
ENDBRANCH  13  17
ENDBRANCH   1  14
BRANCH   5  25
ATOM     25  C   UNL     1      -7.255  18.423  68.748  0.00  0.00    +0.235 C 
BRANCH  25  26
ATOM     26  O   UNL     1      -6.394  18.058  69.795  0.00  0.00    -0.428 OA
BRANCH  26  27
ATOM     27  C   UNL     1      -5.785  19.115  70.476  0.00  0.00    +0.441 C 
ATOM     28  O   UNL     1      -6.415  20.215  70.512  0.00  0.00    -0.223 OA
ATOM     29  N   UNL     1      -5.076  18.782  71.674  0.00  0.00    -0.048 NA
ENDBRANCH  26  27
ENDBRANCH  25  26
ENDBRANCH   5  25
TORSDOF 8
ENDMDL
MODEL 7
REMARK VINA RESULT:      -6.6      1.905      2.432
REMARK  Name = 
REMARK  8 active torsions:
REMARK  status: ('A' for Active; 'I' for Inactive)
REMARK    1  A    between atoms: O_2  and  N_3
REMARK    2  A    between atoms: C_4  and  C_5
REMARK    3  A    between atoms: C_4  and  C_25
REMARK    4  A    between atoms: N_7  and  CA_8
REMARK    5  A    between atoms: CA_12  and  C_13
REMARK    6  A    between atoms: C_16  and  C_17
REMARK    7  A    between atoms: C_17  and  O_18
REMARK    8  A    between atoms: O_18  and  C_19
REMARK                            x       y       z     vdW  Elec       q    Type
REMARK                         _______ _______ _______ _____ _____    ______ ____
ROOT
ATOM      1  CA  UNL     1     -10.569  16.736  67.734  0.00  0.00    +0.201 C 
ATOM      2  C   UNL     1      -9.414  17.286  68.856  0.00  0.00    +0.157 C 
ATOM      3  N   UNL     1      -8.775  17.883  67.608  0.00  0.00    -0.242 N 
ATOM      4  CA  UNL     1      -7.583  18.600  67.921  0.00  0.00    +0.131 C 
ATOM      5  C   UNL     1      -6.698  18.218  68.843  0.00  0.00    +0.030 C 
ATOM      6  C   UNL     1      -6.616  16.802  69.324  0.00  0.00    +0.086 C 
ATOM      7  S   UNL     1      -8.130  15.876  68.900  0.00  0.00    -0.114 S 
ATOM      8  C   UNL     1      -9.328  16.909  66.682  0.00  0.00    +0.253 C 
ATOM      9  O   UNL     1      -9.721  17.312  65.530  0.00  0.00    -0.273 OA
ENDROOT
BRANCH   4  10
ATOM     10  C   UNL     1      -7.280  19.723  67.019  0.00  0.00    +0.401 C 
ATOM     11  OXT UNL     1      -7.570  21.043  67.384  0.00  0.00    -0.239 OA
ATOM     12  O   UNL     1      -7.136  19.454  65.806  0.00  0.00    -0.239 OA
ENDBRANCH   4  10
BRANCH   1  14
ATOM     13  C   UNL     1     -11.588  14.476  68.178  0.00  0.00    +0.289 C 
ATOM     14  N   UNL     1     -10.371  15.165  68.017  0.00  0.00    -0.190 NA
ATOM     15  O   UNL     1     -12.170  14.439  67.050  0.00  0.00    -0.266 OA
BRANCH  13  17
ATOM     16  N   UNL     1     -11.654  12.471  69.376  0.00  0.00    -0.075 NA
ATOM     17  C   UNL     1     -12.030  13.719  69.334  0.00  0.00    +0.208 C 
BRANCH  17  18
ATOM     18  C   UNL     1     -12.186  14.369  70.648  0.00  0.00    +0.171 A 
ATOM     19  O   UNL     1     -11.372  15.244  71.173  0.00  0.00    -0.449 OA
ATOM     20  C   UNL     1     -11.954  15.999  72.064  0.00  0.00    +0.180 A 
ATOM     21  C   UNL     1     -13.272  15.634  72.144  0.00  0.00    +0.044 A 
ATOM     22  C   UNL     1     -13.416  14.574  71.260  0.00  0.00    +0.043 A 
ENDBRANCH  17  18
BRANCH  16  24
ATOM     23  C   UNL     1     -10.582  11.324  67.865  0.00  0.00    +0.288 C 
ATOM     24  O   UNL     1     -10.776  11.967  68.430  0.00  0.00    -0.373 OA
ENDBRANCH  16  24
ENDBRANCH  13  17
ENDBRANCH   1  14
BRANCH   5  25
ATOM     25  C   UNL     1      -5.389  18.952  68.804  0.00  0.00    +0.235 C 
BRANCH  25  26
ATOM     26  O   UNL     1      -4.701  18.830  70.022  0.00  0.00    -0.428 OA
BRANCH  26  27
ATOM     27  C   UNL     1      -5.021  19.779  70.997  0.00  0.00    +0.441 C 
ATOM     28  O   UNL     1      -4.420  19.684  72.110  0.00  0.00    -0.223 OA
ATOM     29  N   UNL     1      -5.247  21.117  70.541  0.00  0.00    -0.048 NA
ENDBRANCH  26  27
ENDBRANCH  25  26
ENDBRANCH   5  25
TORSDOF 8
ENDMDL
MODEL 8
REMARK VINA RESULT:      -6.3      2.791      7.955
REMARK  Name = 
REMARK  8 active torsions:
REMARK  status: ('A' for Active; 'I' for Inactive)
REMARK    1  A    between atoms: O_2  and  N_3
REMARK    2  A    between atoms: C_4  and  C_5
REMARK    3  A    between atoms: C_4  and  C_25
REMARK    4  A    between atoms: N_7  and  CA_8
REMARK    5  A    between atoms: CA_12  and  C_13
REMARK    6  A    between atoms: C_16  and  C_17
REMARK    7  A    between atoms: C_17  and  O_18
REMARK    8  A    between atoms: O_18  and  C_19
REMARK                            x       y       z     vdW  Elec       q    Type
REMARK                         _______ _______ _______ _____ _____    ______ ____
ROOT
ATOM      1  CA  UNL     1      -8.120  15.847  68.663  0.00  0.00    +0.201 C 
ATOM      2  C   UNL     1      -9.639  16.077  67.930  0.00  0.00    +0.157 C 
ATOM      3  N   UNL     1      -9.661  14.553  67.956  0.00  0.00    -0.242 N 
ATOM      4  CA  UNL     1     -10.871  14.038  67.404  0.00  0.00    +0.131 C 
ATOM      5  C   UNL     1     -11.499  14.564  66.351  0.00  0.00    +0.030 C 
ATOM      6  C   UNL     1     -10.796  15.451  65.371  0.00  0.00    +0.086 C 
ATOM      7  S   UNL     1      -9.234  16.089  66.065  0.00  0.00    -0.114 S 
ATOM      8  C   UNL     1      -8.218  14.386  67.934  0.00  0.00    +0.253 C 
ATOM      9  O   UNL     1      -7.699  13.453  68.643  0.00  0.00    -0.273 OA
ENDROOT
BRANCH   4  10
ATOM     10  C   UNL     1     -11.308  12.748  67.963  0.00  0.00    +0.401 C 
ATOM     11  OXT UNL     1     -12.046  12.687  69.151  0.00  0.00    -0.239 OA
ATOM     12  O   UNL     1     -10.688  11.728  67.589  0.00  0.00    -0.239 OA
ENDBRANCH   4  10
BRANCH   1  14
ATOM     13  C   UNL     1      -6.676  17.787  67.963  0.00  0.00    +0.289 C 
ATOM     14  N   UNL     1      -7.250  16.578  67.525  0.00  0.00    -0.190 NA
ATOM     15  O   UNL     1      -5.770  17.509  68.807  0.00  0.00    -0.266 OA
BRANCH  13  17
ATOM     16  N   UNL     1      -5.990  19.503  66.532  0.00  0.00    -0.075 NA
ATOM     17  C   UNL     1      -6.875  19.113  67.407  0.00  0.00    +0.208 C 
BRANCH  17  18
ATOM     18  C   UNL     1      -8.233  19.650  67.205  0.00  0.00    +0.171 A 
ATOM     19  O   UNL     1      -8.873  19.711  66.068  0.00  0.00    -0.449 OA
ATOM     20  C   UNL     1     -10.168  19.761  66.225  0.00  0.00    +0.180 A 
ATOM     21  C   UNL     1     -10.442  19.706  67.566  0.00  0.00    +0.044 A 
ATOM     22  C   UNL     1      -9.207  19.664  68.195  0.00  0.00    +0.043 A 
ENDBRANCH  17  18
BRANCH  16  24
ATOM     23  C   UNL     1      -4.338  18.488  65.538  0.00  0.00    +0.288 C 
ATOM     24  O   UNL     1      -5.011  18.631  66.083  0.00  0.00    -0.373 OA
ENDBRANCH  16  24
ENDBRANCH  13  17
ENDBRANCH   1  14
BRANCH   5  25
ATOM     25  C   UNL     1     -12.580  13.702  65.765  0.00  0.00    +0.235 C 
BRANCH  25  26
ATOM     26  O   UNL     1     -12.476  13.637  64.367  0.00  0.00    -0.428 OA
BRANCH  26  27
ATOM     27  C   UNL     1     -12.160  12.382  63.839  0.00  0.00    +0.441 C 
ATOM     28  O   UNL     1     -13.042  11.822  63.120  0.00  0.00    -0.223 OA
ATOM     29  N   UNL     1     -10.809  12.191  63.404  0.00  0.00    -0.048 NA
ENDBRANCH  26  27
ENDBRANCH  25  26
ENDBRANCH   5  25
TORSDOF 8
ENDMDL
MODEL 9
REMARK VINA RESULT:      -6.3      4.814      8.193
REMARK  Name = 
REMARK  8 active torsions:
REMARK  status: ('A' for Active; 'I' for Inactive)
REMARK    1  A    between atoms: O_2  and  N_3
REMARK    2  A    between atoms: C_4  and  C_5
REMARK    3  A    between atoms: C_4  and  C_25
REMARK    4  A    between atoms: N_7  and  CA_8
REMARK    5  A    between atoms: CA_12  and  C_13
REMARK    6  A    between atoms: C_16  and  C_17
REMARK    7  A    between atoms: C_17  and  O_18
REMARK    8  A    between atoms: O_18  and  C_19
REMARK                            x       y       z     vdW  Elec       q    Type
REMARK                         _______ _______ _______ _____ _____    ______ ____
ROOT
ATOM      1  CA  UNL     1     -11.183  10.306  67.814  0.00  0.00    +0.201 C 
ATOM      2  C   UNL     1     -11.437  11.989  67.769  0.00  0.00    +0.157 C 
ATOM      3  N   UNL     1     -11.032  11.812  66.311  0.00  0.00    -0.242 N 
ATOM      4  CA  UNL     1     -11.059  13.052  65.606  0.00  0.00    +0.131 C 
ATOM      5  C   UNL     1     -10.682  14.220  66.127  0.00  0.00    +0.030 C 
ATOM      6  C   UNL     1      -9.783  14.301  67.323  0.00  0.00    +0.086 C 
ATOM      7  S   UNL     1      -9.726  12.708  68.210  0.00  0.00    -0.114 S 
ATOM      8  C   UNL     1     -10.223  10.624  66.527  0.00  0.00    +0.253 C 
ATOM      9  O   UNL     1     -10.262   9.689  65.650  0.00  0.00    -0.273 OA
ENDROOT
BRANCH   4  10
ATOM     10  C   UNL     1     -11.364  12.942  64.170  0.00  0.00    +0.401 C 
ATOM     11  OXT UNL     1     -12.674  13.089  63.695  0.00  0.00    -0.239 OA
ATOM     12  O   UNL     1     -10.533  12.340  63.457  0.00  0.00    -0.239 OA
ENDBRANCH   4  10
BRANCH   1  14
ATOM     13  C   UNL     1     -10.116   9.242  69.831  0.00  0.00    +0.289 C 
ATOM     14  N   UNL     1     -10.026  10.321  68.931  0.00  0.00    -0.190 NA
ATOM     15  O   UNL     1      -9.820   8.181  69.201  0.00  0.00    -0.266 OA
BRANCH  13  17
ATOM     16  N   UNL     1     -11.478   9.561  71.703  0.00  0.00    -0.075 NA
ATOM     17  C   UNL     1     -10.274   9.302  71.272  0.00  0.00    +0.208 C 
BRANCH  17  18
ATOM     18  C   UNL     1      -9.465   8.446  72.157  0.00  0.00    +0.171 A 
ATOM     19  O   UNL     1      -8.260   8.706  72.586  0.00  0.00    -0.449 OA
ATOM     20  C   UNL     1      -7.974   8.073  73.691  0.00  0.00    +0.180 A 
ATOM     21  C   UNL     1      -9.069   7.341  74.064  0.00  0.00    +0.044 A 
ATOM     22  C   UNL     1     -10.014   7.554  73.071  0.00  0.00    +0.043 A 
ENDBRANCH  17  18
BRANCH  16  24
ATOM     23  C   UNL     1     -13.403   9.763  70.701  0.00  0.00    +0.288 C 
ATOM     24  O   UNL     1     -12.543   9.634  70.818  0.00  0.00    -0.373 OA
ENDBRANCH  16  24
ENDBRANCH  13  17
ENDBRANCH   1  14
BRANCH   5  25
ATOM     25  C   UNL     1     -10.517  15.332  65.132  0.00  0.00    +0.235 C 
BRANCH  25  26
ATOM     26  O   UNL     1      -9.630  16.312  65.608  0.00  0.00    -0.428 OA
BRANCH  26  27
ATOM     27  C   UNL     1     -10.183  17.577  65.825  0.00  0.00    +0.441 C 
ATOM     28  O   UNL     1     -11.024  17.991  64.970  0.00  0.00    -0.223 OA
ATOM     29  N   UNL     1     -10.476  17.924  67.182  0.00  0.00    -0.048 NA
ENDBRANCH  26  27
ENDBRANCH  25  26
ENDBRANCH   5  25
TORSDOF 8
ENDMDL
