MODEL 1
REMARK VINA RESULT:      -4.6      0.000      0.000
REMARK  Name = 
REMARK  0 active torsions:
REMARK  status: ('A' for Active; 'I' for Inactive)
REMARK                            x       y       z     vdW  Elec       q    Type
REMARK                         _______ _______ _______ _____ _____    ______ ____
ROOT
ATOM      1  C   UNL     1     -10.858  15.172  69.741  0.00  0.00    +0.032 C 
ATOM      2  C   UNL     1     -12.021  14.674  70.518  0.00  0.00    -0.008 A 
ATOM      3  C   UNL     1     -12.168  13.297  70.632  0.00  0.00    +0.050 A 
ATOM      4 CL   UNL     1     -11.793  12.296  69.230  0.00  0.00    -0.083 Cl
ATOM      5  C   UNL     1     -13.075  12.873  71.596  0.00  0.00    -0.008 A 
ATOM      6  C   UNL     1     -13.147  11.401  71.822  0.00  0.00    +0.032 C 
ATOM      7  C   UNL     1     -14.021  13.736  72.133  0.00  0.00    +0.039 A 
ATOM      8  C   UNL     1     -14.077  15.063  71.727  0.00  0.00    +0.195 A 
ATOM      9  O   UNL     1     -15.309  15.695  71.536  0.00  0.00    -0.287 OA
ATOM     10  C   UNL     1     -12.908  15.540  71.144  0.00  0.00    +0.039 A 
ENDROOT
TORSDOF 0
ENDMDL
MODEL 2
REMARK VINA RESULT:      -4.5      2.285      3.347
REMARK  Name = 
REMARK  0 active torsions:
REMARK  status: ('A' for Active; 'I' for Inactive)
REMARK                            x       y       z     vdW  Elec       q    Type
REMARK                         _______ _______ _______ _____ _____    ______ ____
ROOT
ATOM      1  C   UNL     1     -12.196  12.079  70.301  0.00  0.00    +0.032 C 
ATOM      2  C   UNL     1     -12.064  13.539  70.533  0.00  0.00    -0.008 A 
ATOM      3  C   UNL     1     -12.564  14.043  71.728  0.00  0.00    +0.050 A 
ATOM      4 CL   UNL     1     -14.074  13.378  72.350  0.00  0.00    -0.083 Cl
ATOM      5  C   UNL     1     -12.165  15.336  72.041  0.00  0.00    -0.008 A 
ATOM      6  C   UNL     1     -12.584  15.842  73.380  0.00  0.00    +0.032 C 
ATOM      7  C   UNL     1     -11.628  16.185  71.082  0.00  0.00    +0.039 A 
ATOM      8  C   UNL     1     -11.461  15.752  69.773  0.00  0.00    +0.195 A 
ATOM      9  O   UNL     1     -11.732  16.611  68.703  0.00  0.00    -0.287 OA
ATOM     10  C   UNL     1     -11.431  14.371  69.618  0.00  0.00    +0.039 A 
ENDROOT
TORSDOF 0
ENDMDL
MODEL 3
REMARK VINA RESULT:      -4.4      4.894      6.075
REMARK  Name = 
REMARK  0 active torsions:
REMARK  status: ('A' for Active; 'I' for Inactive)
REMARK                            x       y       z     vdW  Elec       q    Type
REMARK                         _______ _______ _______ _____ _____    ______ ____
ROOT
ATOM      1  C   UNL     1     -11.657  12.432  66.345  0.00  0.00    +0.032 C 
ATOM      2  C   UNL     1     -11.267  13.858  66.217  0.00  0.00    -0.008 A 
ATOM      3  C   UNL     1     -11.019  14.559  67.392  0.00  0.00    +0.050 A 
ATOM      4 CL   UNL     1     -12.051  14.246  68.787  0.00  0.00    -0.083 Cl
ATOM      5  C   UNL     1     -10.379  15.781  67.231  0.00  0.00    -0.008 A 
ATOM      6  C   UNL     1      -9.988  16.483  68.487  0.00  0.00    +0.032 C 
ATOM      7  C   UNL     1     -10.328  16.420  65.999  0.00  0.00    +0.039 A 
ATOM      8  C   UNL     1     -10.910  15.839  64.879  0.00  0.00    +0.195 A 
ATOM      9  O   UNL     1     -11.602  16.624  63.952  0.00  0.00    -0.287 OA
ATOM     10  C   UNL     1     -11.114  14.467  64.978  0.00  0.00    +0.039 A 
ENDROOT
TORSDOF 0
ENDMDL
MODEL 4
REMARK VINA RESULT:      -4.4      6.150      6.734
REMARK  Name = 
REMARK  0 active torsions:
REMARK  status: ('A' for Active; 'I' for Inactive)
REMARK                            x       y       z     vdW  Elec       q    Type
REMARK                         _______ _______ _______ _____ _____    ______ ____
ROOT
ATOM      1  C   UNL     1      -9.135  13.226  66.837  0.00  0.00    +0.032 C 
ATOM      2  C   UNL     1     -10.165  13.690  65.875  0.00  0.00    -0.008 A 
ATOM      3  C   UNL     1     -10.709  12.741  65.017  0.00  0.00    +0.050 A 
ATOM      4 CL   UNL     1      -9.641  11.510  64.345  0.00  0.00    -0.083 Cl
ATOM      5  C   UNL     1     -11.862  13.136  64.348  0.00  0.00    -0.008 A 
ATOM      6  C   UNL     1     -12.531  12.087  63.526  0.00  0.00    +0.032 C 
ATOM      7  C   UNL     1     -12.227  14.472  64.253  0.00  0.00    +0.039 A 
ATOM      8  C   UNL     1     -11.447  15.460  64.843  0.00  0.00    +0.195 A 
ATOM      9  O   UNL     1     -11.230  16.676  64.189  0.00  0.00    -0.287 OA
ATOM     10  C   UNL     1     -10.606  15.007  65.853  0.00  0.00    +0.039 A 
ENDROOT
TORSDOF 0
ENDMDL
MODEL 5
REMARK VINA RESULT:      -4.4      6.044      6.980
REMARK  Name = 
REMARK  0 active torsions:
REMARK  status: ('A' for Active; 'I' for Inactive)
REMARK                            x       y       z     vdW  Elec       q    Type
REMARK                         _______ _______ _______ _____ _____    ______ ____
ROOT
ATOM      1  C   UNL     1     -11.503  11.972  67.653  0.00  0.00    +0.032 C 
ATOM      2  C   UNL     1     -11.534  12.235  66.193  0.00  0.00    -0.008 A 
ATOM      3  C   UNL     1     -10.615  11.555  65.403  0.00  0.00    +0.050 A 
ATOM      4 CL   UNL     1      -8.983  11.323  66.028  0.00  0.00    -0.083 Cl
ATOM      5  C   UNL     1     -10.862  11.594  64.035  0.00  0.00    -0.008 A 
ATOM      6  C   UNL     1      -9.963  10.761  63.186  0.00  0.00    +0.032 C 
ATOM      7  C   UNL     1     -11.723  12.529  63.478  0.00  0.00    +0.039 A 
ATOM      8  C   UNL     1     -12.378  13.453  64.283  0.00  0.00    +0.195 A 
ATOM      9  O   UNL     1     -12.534  14.776  63.861  0.00  0.00    -0.287 OA
ATOM     10  C   UNL     1     -12.467  13.093  65.623  0.00  0.00    +0.039 A 
ENDROOT
TORSDOF 0
ENDMDL
MODEL 6
REMARK VINA RESULT:      -4.2      2.426      3.805
REMARK  Name = 
REMARK  0 active torsions:
REMARK  status: ('A' for Active; 'I' for Inactive)
REMARK                            x       y       z     vdW  Elec       q    Type
REMARK                         _______ _______ _______ _____ _____    ______ ____
ROOT
ATOM      1  C   UNL     1     -12.251  11.120  70.670  0.00  0.00    +0.032 C 
ATOM      2  C   UNL     1     -12.125  12.501  70.141  0.00  0.00    -0.008 A 
ATOM      3  C   UNL     1     -12.399  13.546  71.015  0.00  0.00    +0.050 A 
ATOM      4 CL   UNL     1     -13.735  13.359  72.150  0.00  0.00    -0.083 Cl
ATOM      5  C   UNL     1     -11.990  14.803  70.586  0.00  0.00    -0.008 A 
ATOM      6  C   UNL     1     -12.157  15.913  71.568  0.00  0.00    +0.032 C 
ATOM      7  C   UNL     1     -11.680  15.053  69.256  0.00  0.00    +0.039 A 
ATOM      8  C   UNL     1     -11.757  14.037  68.312  0.00  0.00    +0.195 A 
ATOM      9  O   UNL     1     -12.260  14.295  67.033  0.00  0.00    -0.287 OA
ATOM     10  C   UNL     1     -11.711  12.751  68.838  0.00  0.00    +0.039 A 
ENDROOT
TORSDOF 0
ENDMDL
MODEL 7
REMARK VINA RESULT:      -4.2      5.213      6.213
REMARK  Name = 
REMARK  0 active torsions:
REMARK  status: ('A' for Active; 'I' for Inactive)
REMARK                            x       y       z     vdW  Elec       q    Type
REMARK                         _______ _______ _______ _____ _____    ______ ____
ROOT
ATOM      1  C   UNL     1     -11.447  12.774  68.222  0.00  0.00    +0.032 C 
ATOM      2  C   UNL     1     -11.561  13.294  66.837  0.00  0.00    -0.008 A 
ATOM      3  C   UNL     1     -11.714  12.363  65.817  0.00  0.00    +0.050 A 
ATOM      4 CL   UNL     1     -10.805  10.856  65.916  0.00  0.00    -0.083 Cl
ATOM      5  C   UNL     1     -12.111  12.883  64.591  0.00  0.00    -0.008 A 
ATOM      6  C   UNL     1     -12.406  11.885  63.523  0.00  0.00    +0.032 C 
ATOM      7  C   UNL     1     -12.002  14.238  64.306  0.00  0.00    +0.039 A 
ATOM      8  C   UNL     1     -11.501  15.120  65.255  0.00  0.00    +0.195 A 
ATOM      9  O   UNL     1     -10.646  16.159  64.874  0.00  0.00    -0.287 OA
ATOM     10  C   UNL     1     -11.558  14.657  66.564  0.00  0.00    +0.039 A 
ENDROOT
TORSDOF 0
ENDMDL
MODEL 8
REMARK VINA RESULT:      -4.2      3.964      4.985
REMARK  Name = 
REMARK  0 active torsions:
REMARK  status: ('A' for Active; 'I' for Inactive)
REMARK                            x       y       z     vdW  Elec       q    Type
REMARK                         _______ _______ _______ _____ _____    ______ ____
ROOT
ATOM      1  C   UNL     1     -10.676  10.169  67.207  0.00  0.00    +0.032 C 
ATOM      2  C   UNL     1     -11.244  11.540  67.169  0.00  0.00    -0.008 A 
ATOM      3  C   UNL     1     -11.469  12.170  68.387  0.00  0.00    +0.050 A 
ATOM      4 CL   UNL     1     -12.082  11.204  69.729  0.00  0.00    -0.083 Cl
ATOM      5  C   UNL     1     -11.715  13.536  68.314  0.00  0.00    -0.008 A 
ATOM      6  C   UNL     1     -11.828  14.249  69.619  0.00  0.00    +0.032 C 
ATOM      7  C   UNL     1     -12.076  14.147  67.121  0.00  0.00    +0.039 A 
ATOM      8  C   UNL     1     -12.188  13.403  65.953  0.00  0.00    +0.195 A 
ATOM      9  O   UNL     1     -13.223  13.656  65.048  0.00  0.00    -0.287 OA
ATOM     10  C   UNL     1     -11.506  12.191  65.971  0.00  0.00    +0.039 A 
ENDROOT
TORSDOF 0
ENDMDL
MODEL 9
REMARK VINA RESULT:      -4.2      4.939      5.811
REMARK  Name = 
REMARK  0 active torsions:
REMARK  status: ('A' for Active; 'I' for Inactive)
REMARK                            x       y       z     vdW  Elec       q    Type
REMARK                         _______ _______ _______ _____ _____    ______ ____
ROOT
ATOM      1  C   UNL     1      -9.005  15.888  66.007  0.00  0.00    +0.032 C 
ATOM      2  C   UNL     1     -10.175  14.988  65.857  0.00  0.00    -0.008 A 
ATOM      3  C   UNL     1     -10.256  13.900  66.718  0.00  0.00    +0.050 A 
ATOM      4 CL   UNL     1      -8.771  13.041  67.125  0.00  0.00    -0.083 Cl
ATOM      5  C   UNL     1     -11.490  13.259  66.753  0.00  0.00    -0.008 A 
ATOM      6  C   UNL     1     -11.633  12.175  67.766  0.00  0.00    +0.032 C 
ATOM      7  C   UNL     1     -12.435  13.446  65.753  0.00  0.00    +0.039 A 
ATOM      8  C   UNL     1     -12.175  14.299  64.688  0.00  0.00    +0.195 A 
ATOM      9  O   UNL     1     -12.574  13.957  63.392  0.00  0.00    -0.287 OA
ATOM     10  C   UNL     1     -11.175  15.236  64.925  0.00  0.00    +0.039 A 
ENDROOT
TORSDOF 0
ENDMDL
