MODEL 1
REMARK VINA RESULT:      -7.6      0.000      0.000
REMARK  Name = 
REMARK  4 active torsions:
REMARK  status: ('A' for Active; 'I' for Inactive)
REMARK    1  A    between atoms: C_3  and  C_4
REMARK    2  A    between atoms: C_4  and  N_5
REMARK    3  A    between atoms: C_21  and  C_22
REMARK    4  A    between atoms: C_22  and  N_23
REMARK                            x       y       z     vdW  Elec       q    Type
REMARK                         _______ _______ _______ _____ _____    ______ ____
ROOT
ATOM      1  C   UNL     1      -8.480  10.571  67.099  0.00  0.00    -0.003 A 
ATOM      2  C   UNL     1      -8.831   9.348  66.542  0.00  0.00    -0.006 A 
ATOM      3  C   UNL     1      -9.719   9.421  65.476  0.00  0.00    -0.003 A 
ATOM      4  C   UNL     1     -10.550  10.528  65.353  0.00  0.00    -0.003 A 
ATOM      5  C   UNL     1     -10.505  11.567  66.268  0.00  0.00    -0.006 A 
ATOM      6  C   UNL     1      -9.318  11.674  66.982  0.00  0.00    -0.003 A 
ENDROOT
BRANCH   2   7
ATOM      7  C   UNL     1      -8.489   8.051  67.205  0.00  0.00    +0.099 C 
BRANCH   7   8
ATOM      8  N   UNL     1      -9.229   7.998  68.433  0.00  0.00    -0.268 NA
ATOM      9  C   UNL     1     -10.360   7.126  68.418  0.00  0.00    +0.091 C 
ATOM     10  C   UNL     1     -10.038   5.668  68.492  0.00  0.00    +0.106 C 
ATOM     11  N   UNL     1      -9.002   5.332  69.429  0.00  0.00    -0.217 NA
ATOM     12  C   UNL     1      -9.422   4.333  70.403  0.00  0.00    +0.090 C 
ATOM     13  C   UNL     1     -10.399   4.963  71.356  0.00  0.00    +0.038 C 
ATOM     14  C   UNL     1      -9.812   5.250  72.710  0.00  0.00    +0.090 C 
ATOM     15  N   UNL     1      -9.680   6.668  72.968  0.00  0.00    -0.216 NA
ATOM     16  C   UNL     1     -10.937   7.312  73.248  0.00  0.00    +0.107 C 
ATOM     17  C   UNL     1     -11.599   7.896  72.032  0.00  0.00    +0.107 C 
ATOM     18  N   UNL     1     -11.090   9.205  71.683  0.00  0.00    -0.216 NA
ATOM     19  C   UNL     1     -10.446   9.129  70.374  0.00  0.00    +0.090 C 
ATOM     20  C   UNL     1      -8.945   8.960  70.579  0.00  0.00    +0.036 C 
ATOM     21  C   UNL     1      -8.415   7.908  69.611  0.00  0.00    +0.074 C 
ENDBRANCH   7   8
ENDBRANCH   2   7
BRANCH   5  22
ATOM     22  C   UNL     1     -11.687  12.346  66.680  0.00  0.00    +0.099 C 
BRANCH  22  23
ATOM     23  N   UNL     1     -11.586  13.753  66.422  0.00  0.00    -0.268 NA
ATOM     24  C   UNL     1     -12.290  14.446  67.500  0.00  0.00    +0.091 C 
ATOM     25  C   UNL     1     -12.022  13.663  68.774  0.00  0.00    +0.106 C 
ATOM     26  N   UNL     1     -10.722  14.048  69.289  0.00  0.00    -0.217 NA
ATOM     27  C   UNL     1     -10.946  14.980  70.378  0.00  0.00    +0.090 C 
ATOM     28  C   UNL     1     -11.429  16.312  69.822  0.00  0.00    +0.038 C 
ATOM     29  C   UNL     1     -10.375  16.860  68.881  0.00  0.00    +0.090 C 
ATOM     30  N   UNL     1     -10.935  17.981  68.132  0.00  0.00    -0.216 NA
ATOM     31  C   UNL     1      -9.859  18.589  67.363  0.00  0.00    +0.107 C 
ATOM     32  C   UNL     1      -9.263  17.595  66.386  0.00  0.00    +0.107 C 
ATOM     33  N   UNL     1     -10.360  17.111  65.568  0.00  0.00    -0.216 NA
ATOM     34  C   UNL     1     -10.188  15.678  65.375  0.00  0.00    +0.090 C 
ATOM     35  C   UNL     1     -11.361  15.228  64.517  0.00  0.00    +0.036 C 
ATOM     36  C   UNL     1     -12.197  14.178  65.193  0.00  0.00    +0.074 C 
ENDBRANCH  22  23
ENDBRANCH   5  22
TORSDOF 4
ENDMDL
MODEL 2
REMARK VINA RESULT:      -7.2      2.324      3.904
REMARK  Name = 
REMARK  4 active torsions:
REMARK  status: ('A' for Active; 'I' for Inactive)
REMARK    1  A    between atoms: C_3  and  C_4
REMARK    2  A    between atoms: C_4  and  N_5
REMARK    3  A    between atoms: C_21  and  C_22
REMARK    4  A    between atoms: C_22  and  N_23
REMARK                            x       y       z     vdW  Elec       q    Type
REMARK                         _______ _______ _______ _____ _____    ______ ____
ROOT
ATOM      1  C   UNL     1     -10.087  13.796  65.002  0.00  0.00    -0.003 A 
ATOM      2  C   UNL     1     -10.803  12.646  65.314  0.00  0.00    -0.006 A 
ATOM      3  C   UNL     1     -12.037  12.867  65.916  0.00  0.00    -0.003 A 
ATOM      4  C   UNL     1     -12.262  14.058  66.597  0.00  0.00    -0.003 A 
ATOM      5  C   UNL     1     -11.283  15.035  66.681  0.00  0.00    -0.006 A 
ATOM      6  C   UNL     1     -10.308  14.982  65.692  0.00  0.00    -0.003 A 
ENDROOT
BRANCH   2   7
ATOM      7  C   UNL     1     -10.182  11.287  65.251  0.00  0.00    +0.099 C 
BRANCH   7   8
ATOM      8  N   UNL     1     -10.287  10.715  66.562  0.00  0.00    -0.268 NA
ATOM      9  C   UNL     1     -10.492   9.301  66.588  0.00  0.00    +0.091 C 
ATOM     10  C   UNL     1      -9.282   8.480  66.274  0.00  0.00    +0.106 C 
ATOM     11  N   UNL     1      -8.068   8.948  66.882  0.00  0.00    -0.217 NA
ATOM     12  C   UNL     1      -7.403   7.925  67.679  0.00  0.00    +0.090 C 
ATOM     13  C   UNL     1      -8.207   7.679  68.925  0.00  0.00    +0.038 C 
ATOM     14  C   UNL     1      -7.587   8.274  70.160  0.00  0.00    +0.090 C 
ATOM     15  N   UNL     1      -8.359   9.378  70.690  0.00  0.00    -0.216 NA
ATOM     16  C   UNL     1      -9.565   8.959  71.356  0.00  0.00    +0.107 C 
ATOM     17  C   UNL     1     -10.770   8.934  70.459  0.00  0.00    +0.107 C 
ATOM     18  N   UNL     1     -11.392  10.233  70.308  0.00  0.00    -0.216 NA
ATOM     19  C   UNL     1     -11.291  10.647  68.911  0.00  0.00    +0.090 C 
ATOM     20  C   UNL     1     -10.087  11.569  68.763  0.00  0.00    +0.036 C 
ATOM     21  C   UNL     1      -9.315  11.200  67.501  0.00  0.00    +0.074 C 
ENDBRANCH   7   8
ENDBRANCH   2   7
BRANCH   5  22
ATOM     22  C   UNL     1     -11.095  15.906  67.856  0.00  0.00    +0.099 C 
BRANCH  22  23
ATOM     23  N   UNL     1     -10.050  16.877  67.709  0.00  0.00    -0.268 NA
ATOM     24  C   UNL     1      -9.244  16.838  68.929  0.00  0.00    +0.091 C 
ATOM     25  C   UNL     1      -9.175  15.383  69.364  0.00  0.00    +0.106 C 
ATOM     26  N   UNL     1      -8.147  14.717  68.587  0.00  0.00    -0.217 NA
ATOM     27  C   UNL     1      -6.969  14.612  69.427  0.00  0.00    +0.090 C 
ATOM     28  C   UNL     1      -6.338  15.987  69.599  0.00  0.00    +0.038 C 
ATOM     29  C   UNL     1      -5.955  16.522  68.234  0.00  0.00    +0.090 C 
ATOM     30  N   UNL     1      -5.612  17.937  68.351  0.00  0.00    -0.216 NA
ATOM     31  C   UNL     1      -5.092  18.380  67.066  0.00  0.00    +0.107 C 
ATOM     32  C   UNL     1      -6.131  18.216  65.975  0.00  0.00    +0.107 C 
ATOM     33  N   UNL     1      -7.306  18.948  66.410  0.00  0.00    -0.216 NA
ATOM     34  C   UNL     1      -8.484  18.160  66.079  0.00  0.00    +0.090 C 
ATOM     35  C   UNL     1      -9.678  18.972  66.556  0.00  0.00    +0.036 C 
ATOM     36  C   UNL     1     -10.510  18.230  67.565  0.00  0.00    +0.074 C 
ENDBRANCH  22  23
ENDBRANCH   5  22
TORSDOF 4
ENDMDL
MODEL 3
REMARK VINA RESULT:      -7.2      2.173      3.476
REMARK  Name = 
REMARK  4 active torsions:
REMARK  status: ('A' for Active; 'I' for Inactive)
REMARK    1  A    between atoms: C_3  and  C_4
REMARK    2  A    between atoms: C_4  and  N_5
REMARK    3  A    between atoms: C_21  and  C_22
REMARK    4  A    between atoms: C_22  and  N_23
REMARK                            x       y       z     vdW  Elec       q    Type
REMARK                         _______ _______ _______ _____ _____    ______ ____
ROOT
ATOM      1  C   UNL     1     -11.244  11.893  66.757  0.00  0.00    -0.003 A 
ATOM      2  C   UNL     1     -10.743  11.575  68.013  0.00  0.00    -0.006 A 
ATOM      3  C   UNL     1     -11.066  12.477  69.020  0.00  0.00    -0.003 A 
ATOM      4  C   UNL     1     -11.385  13.789  68.686  0.00  0.00    -0.003 A 
ATOM      5  C   UNL     1     -11.395  14.214  67.368  0.00  0.00    -0.006 A 
ATOM      6  C   UNL     1     -11.551  13.207  66.424  0.00  0.00    -0.003 A 
ENDROOT
BRANCH   2   7
ATOM      7  C   UNL     1      -9.722  10.499  68.208  0.00  0.00    +0.099 C 
BRANCH   7   8
ATOM      8  N   UNL     1     -10.311   9.510  69.064  0.00  0.00    -0.268 NA
ATOM      9  C   UNL     1     -10.891   8.394  68.386  0.00  0.00    +0.091 C 
ATOM     10  C   UNL     1      -9.912   7.407  67.838  0.00  0.00    +0.106 C 
ATOM     11  N   UNL     1      -8.814   7.105  68.714  0.00  0.00    -0.217 NA
ATOM     12  C   UNL     1      -8.679   5.679  68.983  0.00  0.00    +0.090 C 
ATOM     13  C   UNL     1      -9.811   5.241  69.870  0.00  0.00    +0.038 C 
ATOM     14  C   UNL     1      -9.392   4.997  71.293  0.00  0.00    +0.090 C 
ATOM     15  N   UNL     1      -9.944   5.973  72.209  0.00  0.00    -0.216 NA
ATOM     16  C   UNL     1     -11.347   5.778  72.466  0.00  0.00    +0.107 C 
ATOM     17  C   UNL     1     -12.242   6.566  71.552  0.00  0.00    +0.107 C 
ATOM     18  N   UNL     1     -12.428   7.935  71.984  0.00  0.00    -0.216 NA
ATOM     19  C   UNL     1     -11.863   8.830  70.977  0.00  0.00    +0.090 C 
ATOM     20  C   UNL     1     -10.458   9.228  71.412  0.00  0.00    +0.036 C 
ATOM     21  C   UNL     1      -9.519   9.172  70.212  0.00  0.00    +0.074 C 
ENDBRANCH   7   8
ENDBRANCH   2   7
BRANCH   5  22
ATOM     22  C   UNL     1     -11.001  15.570  66.942  0.00  0.00    +0.099 C 
BRANCH  22  23
ATOM     23  N   UNL     1      -9.612  15.868  67.134  0.00  0.00    -0.268 NA
ATOM     24  C   UNL     1      -9.347  17.149  66.482  0.00  0.00    +0.091 C 
ATOM     25  C   UNL     1     -10.574  18.017  66.704  0.00  0.00    +0.106 C 
ATOM     26  N   UNL     1     -10.493  18.602  68.029  0.00  0.00    -0.217 NA
ATOM     27  C   UNL     1     -10.041  19.972  67.871  0.00  0.00    +0.090 C 
ATOM     28  C   UNL     1      -8.571  19.983  67.473  0.00  0.00    +0.038 C 
ATOM     29  C   UNL     1      -7.766  19.294  68.556  0.00  0.00    +0.090 C 
ATOM     30  N   UNL     1      -6.412  19.049  68.068  0.00  0.00    -0.216 NA
ATOM     31  C   UNL     1      -5.620  18.540  69.178  0.00  0.00    +0.107 C 
ATOM     32  C   UNL     1      -6.195  17.240  69.703  0.00  0.00    +0.107 C 
ATOM     33  N   UNL     1      -6.262  16.332  68.573  0.00  0.00    -0.216 NA
ATOM     34  C   UNL     1      -7.517  15.599  68.650  0.00  0.00    +0.090 C 
ATOM     35  C   UNL     1      -7.533  14.669  67.446  0.00  0.00    +0.036 C 
ATOM     36  C   UNL     1      -8.711  14.915  66.546  0.00  0.00    +0.074 C 
ENDBRANCH  22  23
ENDBRANCH   5  22
TORSDOF 4
ENDMDL
MODEL 4
REMARK VINA RESULT:      -7.2      2.337      8.986
REMARK  Name = 
REMARK  4 active torsions:
REMARK  status: ('A' for Active; 'I' for Inactive)
REMARK    1  A    between atoms: C_3  and  C_4
REMARK    2  A    between atoms: C_4  and  N_5
REMARK    3  A    between atoms: C_21  and  C_22
REMARK    4  A    between atoms: C_22  and  N_23
REMARK                            x       y       z     vdW  Elec       q    Type
REMARK                         _______ _______ _______ _____ _____    ______ ____
ROOT
ATOM      1  C   UNL     1     -11.812  12.799  68.433  0.00  0.00    -0.003 A 
ATOM      2  C   UNL     1     -11.962  13.933  67.644  0.00  0.00    -0.006 A 
ATOM      3  C   UNL     1     -12.107  13.689  66.284  0.00  0.00    -0.003 A 
ATOM      4  C   UNL     1     -11.619  12.502  65.747  0.00  0.00    -0.003 A 
ATOM      5  C   UNL     1     -10.999  11.554  66.543  0.00  0.00    -0.006 A 
ATOM      6  C   UNL     1     -11.315  11.618  67.894  0.00  0.00    -0.003 A 
ENDROOT
BRANCH   2   7
ATOM      7  C   UNL     1     -11.720  15.308  68.183  0.00  0.00    +0.099 C 
BRANCH   7   8
ATOM      8  N   UNL     1     -10.341  15.619  67.938  0.00  0.00    -0.268 NA
ATOM      9  C   UNL     1     -10.116  16.617  66.941  0.00  0.00    +0.091 C 
ATOM     10  C   UNL     1     -10.407  18.019  67.370  0.00  0.00    +0.106 C 
ATOM     11  N   UNL     1      -9.955  18.345  68.693  0.00  0.00    -0.217 NA
ATOM     12  C   UNL     1      -9.082  19.511  68.722  0.00  0.00    +0.090 C 
ATOM     13  C   UNL     1      -7.759  19.145  68.109  0.00  0.00    +0.038 C 
ATOM     14  C   UNL     1      -6.660  18.972  69.121  0.00  0.00    +0.090 C 
ATOM     15  N   UNL     1      -6.225  17.597  69.236  0.00  0.00    -0.216 NA
ATOM     16  C   UNL     1      -5.424  17.160  68.121  0.00  0.00    +0.107 C 
ATOM     17  C   UNL     1      -6.221  16.506  67.028  0.00  0.00    +0.107 C 
ATOM     18  N   UNL     1      -6.494  15.108  67.286  0.00  0.00    -0.216 NA
ATOM     19  C   UNL     1      -7.937  14.924  67.422  0.00  0.00    +0.090 C 
ATOM     20  C   UNL     1      -8.291  14.929  68.904  0.00  0.00    +0.036 C 
ATOM     21  C   UNL     1      -9.547  15.765  69.125  0.00  0.00    +0.074 C 
ENDBRANCH   7   8
ENDBRANCH   2   7
BRANCH   5  22
ATOM     22  C   UNL     1      -9.882  10.706  66.086  0.00  0.00    +0.099 C 
BRANCH  22  23
ATOM     23  N   UNL     1      -9.587   9.602  66.952  0.00  0.00    -0.268 NA
ATOM     24  C   UNL     1      -8.134   9.535  67.094  0.00  0.00    +0.091 C 
ATOM     25  C   UNL     1      -7.630  10.968  67.129  0.00  0.00    +0.106 C 
ATOM     26  N   UNL     1      -7.802  11.486  68.473  0.00  0.00    -0.217 NA
ATOM     27  C   UNL     1      -6.508  11.433  69.127  0.00  0.00    +0.090 C 
ATOM     28  C   UNL     1      -6.147   9.986  69.432  0.00  0.00    +0.038 C 
ATOM     29  C   UNL     1      -7.210   9.399  70.339  0.00  0.00    +0.090 C 
ATOM     30  N   UNL     1      -7.032   7.951  70.413  0.00  0.00    -0.216 NA
ATOM     31  C   UNL     1      -7.956   7.437  71.414  0.00  0.00    +0.107 C 
ATOM     32  C   UNL     1      -9.392   7.737  71.031  0.00  0.00    +0.107 C 
ATOM     33  N   UNL     1      -9.594   7.172  69.710  0.00  0.00    -0.216 NA
ATOM     34  C   UNL     1     -10.384   8.112  68.927  0.00  0.00    +0.090 C 
ATOM     35  C   UNL     1     -10.562   7.472  67.560  0.00  0.00    +0.036 C 
ATOM     36  C   UNL     1     -10.009   8.323  66.451  0.00  0.00    +0.074 C 
ENDBRANCH  22  23
ENDBRANCH   5  22
TORSDOF 4
ENDMDL
MODEL 5
REMARK VINA RESULT:      -7.0      1.983      9.768
REMARK  Name = 
REMARK  4 active torsions:
REMARK  status: ('A' for Active; 'I' for Inactive)
REMARK    1  A    between atoms: C_3  and  C_4
REMARK    2  A    between atoms: C_4  and  N_5
REMARK    3  A    between atoms: C_21  and  C_22
REMARK    4  A    between atoms: C_22  and  N_23
REMARK                            x       y       z     vdW  Elec       q    Type
REMARK                         _______ _______ _______ _____ _____    ______ ____
ROOT
ATOM      1  C   UNL     1     -11.030  13.486  68.454  0.00  0.00    -0.003 A 
ATOM      2  C   UNL     1     -10.320  13.032  67.349  0.00  0.00    -0.006 A 
ATOM      3  C   UNL     1     -10.726  11.798  66.856  0.00  0.00    -0.003 A 
ATOM      4  C   UNL     1     -11.387  10.910  67.696  0.00  0.00    -0.003 A 
ATOM      5  C   UNL     1     -11.658  11.234  69.016  0.00  0.00    -0.006 A 
ATOM      6  C   UNL     1     -11.681  12.594  69.297  0.00  0.00    -0.003 A 
ENDROOT
BRANCH   2   7
ATOM      7  C   UNL     1      -9.055  13.691  66.897  0.00  0.00    +0.099 C 
BRANCH   7   8
ATOM      8  N   UNL     1      -9.176  15.088  67.201  0.00  0.00    -0.268 NA
ATOM      9  C   UNL     1      -8.295  15.562  68.221  0.00  0.00    +0.091 C 
ATOM     10  C   UNL     1      -6.870  15.727  67.800  0.00  0.00    +0.106 C 
ATOM     11  N   UNL     1      -6.695  16.313  66.500  0.00  0.00    -0.217 NA
ATOM     12  C   UNL     1      -5.848  17.498  66.523  0.00  0.00    +0.090 C 
ATOM     13  C   UNL     1      -6.599  18.621  67.183  0.00  0.00    +0.038 C 
ATOM     14  C   UNL     1      -7.096  19.658  66.213  0.00  0.00    +0.090 C 
ATOM     15  N   UNL     1      -8.538  19.661  66.097  0.00  0.00    -0.216 NA
ATOM     16  C   UNL     1      -9.198  20.243  67.236  0.00  0.00    +0.107 C 
ATOM     17  C   UNL     1      -9.581  19.240  68.287  0.00  0.00    +0.107 C 
ATOM     18  N   UNL     1     -10.830  18.568  68.000  0.00  0.00    -0.216 NA
ATOM     19  C   UNL     1     -10.568  17.145  67.804  0.00  0.00    +0.090 C 
ATOM     20  C   UNL     1     -10.455  16.872  66.309  0.00  0.00    +0.036 C 
ATOM     21  C   UNL     1      -9.277  15.939  66.050  0.00  0.00    +0.074 C 
ENDBRANCH   7   8
ENDBRANCH   2   7
BRANCH   5  22
ATOM     22  C   UNL     1     -11.655  10.253  70.116  0.00  0.00    +0.099 C 
BRANCH  22  23
ATOM     23  N   UNL     1     -10.559   9.328  70.079  0.00  0.00    -0.268 NA
ATOM     24  C   UNL     1     -10.509   8.659  71.379  0.00  0.00    +0.091 C 
ATOM     25  C   UNL     1     -11.948   8.454  71.823  0.00  0.00    +0.106 C 
ATOM     26  N   UNL     1     -12.472   7.274  71.163  0.00  0.00    -0.217 NA
ATOM     27  C   UNL     1     -12.436   6.188  72.125  0.00  0.00    +0.090 C 
ATOM     28  C   UNL     1     -10.995   5.758  72.359  0.00  0.00    +0.038 C 
ATOM     29  C   UNL     1     -10.402   5.301  71.042  0.00  0.00    +0.090 C 
ATOM     30  N   UNL     1      -8.957   5.154  71.190  0.00  0.00    -0.216 NA
ATOM     31  C   UNL     1      -8.438   4.559  69.967  0.00  0.00    +0.107 C 
ATOM     32  C   UNL     1      -8.720   5.447  68.771  0.00  0.00    +0.107 C 
ATOM     33  N   UNL     1      -8.146   6.745  69.075  0.00  0.00    -0.216 NA
ATOM     34  C   UNL     1      -9.073   7.772  68.622  0.00  0.00    +0.090 C 
ATOM     35  C   UNL     1      -8.422   9.103  68.966  0.00  0.00    +0.036 C 
ATOM     36  C   UNL     1      -9.273   9.937  69.882  0.00  0.00    +0.074 C 
ENDBRANCH  22  23
ENDBRANCH   5  22
TORSDOF 4
ENDMDL
MODEL 6
REMARK VINA RESULT:      -7.0      3.515      8.578
REMARK  Name = 
REMARK  4 active torsions:
REMARK  status: ('A' for Active; 'I' for Inactive)
REMARK    1  A    between atoms: C_3  and  C_4
REMARK    2  A    between atoms: C_4  and  N_5
REMARK    3  A    between atoms: C_21  and  C_22
REMARK    4  A    between atoms: C_22  and  N_23
REMARK                            x       y       z     vdW  Elec       q    Type
REMARK                         _______ _______ _______ _____ _____    ______ ____
ROOT
ATOM      1  C   UNL     1      -5.834  12.854  67.378  0.00  0.00    -0.003 A 
ATOM      2  C   UNL     1      -5.114  13.048  68.551  0.00  0.00    -0.006 A 
ATOM      3  C   UNL     1      -5.271  12.052  69.508  0.00  0.00    -0.003 A 
ATOM      4  C   UNL     1      -6.416  11.263  69.493  0.00  0.00    -0.003 A 
ATOM      5  C   UNL     1      -7.401  11.443  68.536  0.00  0.00    -0.006 A 
ATOM      6  C   UNL     1      -6.984  12.072  67.370  0.00  0.00    -0.003 A 
ENDROOT
BRANCH   2   7
ATOM      7  C   UNL     1      -4.440  14.347  68.858  0.00  0.00    +0.099 C 
BRANCH   7   8
ATOM      8  N   UNL     1      -5.425  15.379  68.704  0.00  0.00    -0.268 NA
ATOM      9  C   UNL     1      -6.007  15.844  69.923  0.00  0.00    +0.091 C 
ATOM     10  C   UNL     1      -5.131  16.735  70.744  0.00  0.00    +0.106 C 
ATOM     11  N   UNL     1      -4.396  17.712  69.988  0.00  0.00    -0.217 NA
ATOM     12  C   UNL     1      -4.626  19.074  70.451  0.00  0.00    +0.090 C 
ATOM     13  C   UNL     1      -6.020  19.490  70.073  0.00  0.00    +0.038 C 
ATOM     14  C   UNL     1      -6.062  20.452  68.918  0.00  0.00    +0.090 C 
ATOM     15  N   UNL     1      -6.639  19.864  67.728  0.00  0.00    -0.216 NA
ATOM     16  C   UNL     1      -8.069  19.713  67.805  0.00  0.00    +0.107 C 
ATOM     17  C   UNL     1      -8.505  18.371  68.321  0.00  0.00    +0.107 C 
ATOM     18  N   UNL     1      -8.526  17.349  67.295  0.00  0.00    -0.216 NA
ATOM     19  C   UNL     1      -7.543  16.323  67.629  0.00  0.00    +0.090 C 
ATOM     20  C   UNL     1      -6.260  16.608  66.858  0.00  0.00    +0.036 C 
ATOM     21  C   UNL     1      -5.059  16.413  67.778  0.00  0.00    +0.074 C 
ENDBRANCH   7   8
ENDBRANCH   2   7
BRANCH   5  22
ATOM     22  C   UNL     1      -8.839  11.250  68.797  0.00  0.00    +0.099 C 
BRANCH  22  23
ATOM     23  N   UNL     1      -9.632  11.059  67.617  0.00  0.00    -0.268 NA
ATOM     24  C   UNL     1     -10.929  11.690  67.856  0.00  0.00    +0.091 C 
ATOM     25  C   UNL     1     -10.662  12.950  68.663  0.00  0.00    +0.106 C 
ATOM     26  N   UNL     1     -10.246  14.002  67.755  0.00  0.00    -0.217 NA
ATOM     27  C   UNL     1     -11.393  14.862  67.533  0.00  0.00    +0.090 C 
ATOM     28  C   UNL     1     -12.416  14.139  66.668  0.00  0.00    +0.038 C 
ATOM     29  C   UNL     1     -11.772  13.783  65.344  0.00  0.00    +0.090 C 
ATOM     30  N   UNL     1     -12.638  12.855  64.622  0.00  0.00    -0.216 NA
ATOM     31  C   UNL     1     -12.078  12.661  63.292  0.00  0.00    +0.107 C 
ATOM     32  C   UNL     1     -10.684  12.072  63.371  0.00  0.00    +0.107 C 
ATOM     33  N   UNL     1     -10.797  10.845  64.138  0.00  0.00    -0.216 NA
ATOM     34  C   UNL     1      -9.654  10.760  65.035  0.00  0.00    +0.090 C 
ATOM     35  C   UNL     1      -9.826   9.462  65.809  0.00  0.00    +0.036 C 
ATOM     36  C   UNL     1      -9.898   9.684  67.294  0.00  0.00    +0.074 C 
ENDBRANCH  22  23
ENDBRANCH   5  22
TORSDOF 4
ENDMDL
MODEL 7
REMARK VINA RESULT:      -7.0      2.089      3.309
REMARK  Name = 
REMARK  4 active torsions:
REMARK  status: ('A' for Active; 'I' for Inactive)
REMARK    1  A    between atoms: C_3  and  C_4
REMARK    2  A    between atoms: C_4  and  N_5
REMARK    3  A    between atoms: C_21  and  C_22
REMARK    4  A    between atoms: C_22  and  N_23
REMARK                            x       y       z     vdW  Elec       q    Type
REMARK                         _______ _______ _______ _____ _____    ______ ____
ROOT
ATOM      1  C   UNL     1      -7.035  11.329  66.632  0.00  0.00    -0.003 A 
ATOM      2  C   UNL     1      -8.331  10.895  66.385  0.00  0.00    -0.006 A 
ATOM      3  C   UNL     1      -9.280  11.905  66.284  0.00  0.00    -0.003 A 
ATOM      4  C   UNL     1      -9.040  13.132  66.891  0.00  0.00    -0.003 A 
ATOM      5  C   UNL     1      -7.868  13.373  67.589  0.00  0.00    -0.006 A 
ATOM      6  C   UNL     1      -6.799  12.553  67.248  0.00  0.00    -0.003 A 
ENDROOT
BRANCH   2   7
ATOM      7  C   UNL     1      -8.714   9.452  66.485  0.00  0.00    +0.099 C 
BRANCH   7   8
ATOM      8  N   UNL     1      -9.544   9.316  67.647  0.00  0.00    -0.268 NA
ATOM      9  C   UNL     1     -10.766   8.607  67.434  0.00  0.00    +0.091 C 
ATOM     10  C   UNL     1     -10.624   7.125  67.303  0.00  0.00    +0.106 C 
ATOM     11  N   UNL     1      -9.708   6.528  68.234  0.00  0.00    -0.217 NA
ATOM     12  C   UNL     1     -10.314   5.460  69.019  0.00  0.00    +0.090 C 
ATOM     13  C   UNL     1     -11.279   6.064  70.000  0.00  0.00    +0.038 C 
ATOM     14  C   UNL     1     -10.765   6.074  71.413  0.00  0.00    +0.090 C 
ATOM     15  N   UNL     1     -10.487   7.412  71.892  0.00  0.00    -0.216 NA
ATOM     16  C   UNL     1     -11.677   8.163  72.196  0.00  0.00    +0.107 C 
ATOM     17  C   UNL     1     -12.173   8.996  71.048  0.00  0.00    +0.107 C 
ATOM     18  N   UNL     1     -11.488  10.267  70.933  0.00  0.00    -0.216 NA
ATOM     19  C   UNL     1     -10.762  10.299  69.667  0.00  0.00    +0.090 C 
ATOM     20  C   UNL     1      -9.311   9.913  69.928  0.00  0.00    +0.036 C 
ATOM     21  C   UNL     1      -8.837   8.953  68.842  0.00  0.00    +0.074 C 
ENDBRANCH   7   8
ENDBRANCH   2   7
BRANCH   5  22
ATOM     22  C   UNL     1      -7.790  14.226  68.789  0.00  0.00    +0.099 C 
BRANCH  22  23
ATOM     23  N   UNL     1      -8.569  15.427  68.710  0.00  0.00    -0.268 NA
ATOM     24  C   UNL     1      -7.716  16.530  69.151  0.00  0.00    +0.091 C 
ATOM     25  C   UNL     1      -6.316  16.235  68.637  0.00  0.00    +0.106 C 
ATOM     26  N   UNL     1      -6.238  16.645  67.249  0.00  0.00    -0.217 NA
ATOM     27  C   UNL     1      -5.554  17.924  67.212  0.00  0.00    +0.090 C 
ATOM     28  C   UNL     1      -6.465  19.009  67.770  0.00  0.00    +0.038 C 
ATOM     29  C   UNL     1      -7.723  19.071  66.927  0.00  0.00    +0.090 C 
ATOM     30  N   UNL     1      -8.717  19.898  67.606  0.00  0.00    -0.216 NA
ATOM     31  C   UNL     1      -9.845  20.075  66.703  0.00  0.00    +0.107 C 
ATOM     32  C   UNL     1     -10.474  18.740  66.354  0.00  0.00    +0.107 C 
ATOM     33  N   UNL     1     -10.829  18.109  67.611  0.00  0.00    -0.216 NA
ATOM     34  C   UNL     1     -10.502  16.693  67.520  0.00  0.00    +0.090 C 
ATOM     35  C   UNL     1     -10.892  16.087  68.859  0.00  0.00    +0.036 C 
ATOM     36  C   UNL     1      -9.729  15.442  69.558  0.00  0.00    +0.074 C 
ENDBRANCH  22  23
ENDBRANCH   5  22
TORSDOF 4
ENDMDL
MODEL 8
REMARK VINA RESULT:      -7.0      2.113      9.552
REMARK  Name = 
REMARK  4 active torsions:
REMARK  status: ('A' for Active; 'I' for Inactive)
REMARK    1  A    between atoms: C_3  and  C_4
REMARK    2  A    between atoms: C_4  and  N_5
REMARK    3  A    between atoms: C_21  and  C_22
REMARK    4  A    between atoms: C_22  and  N_23
REMARK                            x       y       z     vdW  Elec       q    Type
REMARK                         _______ _______ _______ _____ _____    ______ ____
ROOT
ATOM      1  C   UNL     1     -12.004  12.991  68.796  0.00  0.00    -0.003 A 
ATOM      2  C   UNL     1     -11.603  13.682  67.659  0.00  0.00    -0.006 A 
ATOM      3  C   UNL     1     -10.955  12.913  66.700  0.00  0.00    -0.003 A 
ATOM      4  C   UNL     1     -10.321  11.736  67.083  0.00  0.00    -0.003 A 
ATOM      5  C   UNL     1     -10.330  11.309  68.401  0.00  0.00    -0.006 A 
ATOM      6  C   UNL     1     -11.361  11.820  69.180  0.00  0.00    -0.003 A 
ENDROOT
BRANCH   2   7
ATOM      7  C   UNL     1     -11.632  15.177  67.593  0.00  0.00    +0.099 C 
BRANCH   7   8
ATOM      8  N   UNL     1     -10.271  15.619  67.489  0.00  0.00    -0.268 NA
ATOM      9  C   UNL     1     -10.049  16.671  66.548  0.00  0.00    +0.091 C 
ATOM     10  C   UNL     1     -10.507  18.024  66.991  0.00  0.00    +0.106 C 
ATOM     11  N   UNL     1     -10.210  18.337  68.361  0.00  0.00    -0.217 NA
ATOM     12  C   UNL     1      -9.454  19.574  68.508  0.00  0.00    +0.090 C 
ATOM     13  C   UNL     1      -8.053  19.352  68.012  0.00  0.00    +0.038 C 
ATOM     14  C   UNL     1      -7.040  19.238  69.118  0.00  0.00    +0.090 C 
ATOM     15  N   UNL     1      -6.491  17.903  69.231  0.00  0.00    -0.216 NA
ATOM     16  C   UNL     1      -5.556  17.584  68.184  0.00  0.00    +0.107 C 
ATOM     17  C   UNL     1      -6.185  16.905  67.001  0.00  0.00    +0.107 C 
ATOM     18  N   UNL     1      -6.350  15.479  67.188  0.00  0.00    -0.216 NA
ATOM     19  C   UNL     1      -7.776  15.162  67.181  0.00  0.00    +0.090 C 
ATOM     20  C   UNL     1      -8.263  15.077  68.623  0.00  0.00    +0.036 C 
ATOM     21  C   UNL     1      -9.605  15.788  68.749  0.00  0.00    +0.074 C 
ENDBRANCH   7   8
ENDBRANCH   2   7
BRANCH   5  22
ATOM     22  C   UNL     1      -9.208  10.595  69.037  0.00  0.00    +0.099 C 
BRANCH  22  23
ATOM     23  N   UNL     1      -8.913   9.319  68.453  0.00  0.00    -0.268 NA
ATOM     24  C   UNL     1      -8.660   8.385  69.549  0.00  0.00    +0.091 C 
ATOM     25  C   UNL     1      -9.621   8.751  70.668  0.00  0.00    +0.106 C 
ATOM     26  N   UNL     1     -10.913   8.161  70.380  0.00  0.00    -0.217 NA
ATOM     27  C   UNL     1     -11.038   6.969  71.197  0.00  0.00    +0.090 C 
ATOM     28  C   UNL     1     -10.113   5.883  70.664  0.00  0.00    +0.038 C 
ATOM     29  C   UNL     1     -10.499   5.572  69.233  0.00  0.00    +0.090 C 
ATOM     30  N   UNL     1      -9.460   4.747  68.623  0.00  0.00    -0.216 NA
ATOM     31  C   UNL     1      -9.932   4.328  67.311  0.00  0.00    +0.107 C 
ATOM     32  C   UNL     1     -10.194   5.526  66.421  0.00  0.00    +0.107 C 
ATOM     33  N   UNL     1      -8.959   6.286  66.377  0.00  0.00    -0.216 NA
ATOM     34  C   UNL     1      -9.291   7.702  66.454  0.00  0.00    +0.090 C 
ATOM     35  C   UNL     1      -7.965   8.445  66.405  0.00  0.00    +0.036 C 
ATOM     36  C   UNL     1      -7.742   9.301  67.620  0.00  0.00    +0.074 C 
ENDBRANCH  22  23
ENDBRANCH   5  22
TORSDOF 4
ENDMDL
MODEL 9
REMARK VINA RESULT:      -6.9      1.987      4.556
REMARK  Name = 
REMARK  4 active torsions:
REMARK  status: ('A' for Active; 'I' for Inactive)
REMARK    1  A    between atoms: C_3  and  C_4
REMARK    2  A    between atoms: C_4  and  N_5
REMARK    3  A    between atoms: C_21  and  C_22
REMARK    4  A    between atoms: C_22  and  N_23
REMARK                            x       y       z     vdW  Elec       q    Type
REMARK                         _______ _______ _______ _____ _____    ______ ____
ROOT
ATOM      1  C   UNL     1     -11.571   9.877  71.077  0.00  0.00    -0.003 A 
ATOM      2  C   UNL     1     -10.778   8.853  71.579  0.00  0.00    -0.006 A 
ATOM      3  C   UNL     1      -9.422   8.970  71.300  0.00  0.00    -0.003 A 
ATOM      4  C   UNL     1      -9.011   9.723  70.207  0.00  0.00    -0.003 A 
ATOM      5  C   UNL     1      -9.927  10.368  69.392  0.00  0.00    -0.006 A 
ATOM      6  C   UNL     1     -11.161  10.622  69.977  0.00  0.00    -0.003 A 
ENDROOT
BRANCH   2   7
ATOM      7  C   UNL     1     -11.369   7.598  72.140  0.00  0.00    +0.099 C 
BRANCH   7   8
ATOM      8  N   UNL     1     -10.443   6.538  71.867  0.00  0.00    -0.268 NA
ATOM      9  C   UNL     1      -9.767   6.018  73.013  0.00  0.00    +0.091 C 
ATOM     10  C   UNL     1     -10.594   5.135  73.891  0.00  0.00    +0.106 C 
ATOM     11  N   UNL     1     -11.432   4.207  73.185  0.00  0.00    -0.217 NA
ATOM     12  C   UNL     1     -11.212   2.824  73.590  0.00  0.00    +0.090 C 
ATOM     13  C   UNL     1      -9.876   2.372  73.070  0.00  0.00    +0.038 C 
ATOM     14  C   UNL     1      -9.978   1.442  71.893  0.00  0.00    +0.090 C 
ATOM     15  N   UNL     1      -9.495   2.043  70.668  0.00  0.00    -0.216 NA
ATOM     16  C   UNL     1      -8.059   2.142  70.613  0.00  0.00    +0.107 C 
ATOM     17  C   UNL     1      -7.526   3.453  71.118  0.00  0.00    +0.107 C 
ATOM     18  N   UNL     1      -7.564   4.502  70.122  0.00  0.00    -0.216 NA
ATOM     19  C   UNL     1      -8.472   5.552  70.573  0.00  0.00    +0.090 C 
ATOM     20  C   UNL     1      -9.832   5.333  69.921  0.00  0.00    +0.036 C 
ATOM     21  C   UNL     1     -10.933   5.544  70.955  0.00  0.00    +0.074 C 
ENDBRANCH   7   8
ENDBRANCH   2   7
BRANCH   5  22
ATOM     22  C   UNL     1      -9.749  10.544  67.939  0.00  0.00    +0.099 C 
BRANCH  22  23
ATOM     23  N   UNL     1      -9.343  11.863  67.550  0.00  0.00    -0.268 NA
ATOM     24  C   UNL     1      -9.623  12.002  66.121  0.00  0.00    +0.091 C 
ATOM     25  C   UNL     1     -10.920  11.257  65.854  0.00  0.00    +0.106 C 
ATOM     26  N   UNL     1     -12.030  12.116  66.219  0.00  0.00    -0.217 NA
ATOM     27  C   UNL     1     -12.563  12.682  64.994  0.00  0.00    +0.090 C 
ATOM     28  C   UNL     1     -11.588  13.711  64.438  0.00  0.00    +0.038 C 
ATOM     29  C   UNL     1     -11.391  14.803  65.469  0.00  0.00    +0.090 C 
ATOM     30  N   UNL     1     -10.260  15.639  65.074  0.00  0.00    -0.216 NA
ATOM     31  C   UNL     1     -10.198  16.771  65.987  0.00  0.00    +0.107 C 
ATOM     32  C   UNL     1      -9.988  16.304  67.414  0.00  0.00    +0.107 C 
ATOM     33  N   UNL     1      -8.785  15.493  67.411  0.00  0.00    -0.216 NA
ATOM     34  C   UNL     1      -9.010  14.339  68.269  0.00  0.00    +0.090 C 
ATOM     35  C   UNL     1      -7.723  13.529  68.226  0.00  0.00    +0.036 C 
ATOM     36  C   UNL     1      -7.941  12.131  67.721  0.00  0.00    +0.074 C 
ENDBRANCH  22  23
ENDBRANCH   5  22
TORSDOF 4
ENDMDL
