MODEL 1
REMARK VINA RESULT:      -6.7      0.000      0.000
REMARK  Name = 
REMARK  5 active torsions:
REMARK  status: ('A' for Active; 'I' for Inactive)
REMARK    1  A    between atoms: N_2  and  C_3
REMARK    2  A    between atoms: N_2  and  C_12
REMARK    3  A    between atoms: C_3  and  C_4
REMARK    4  A    between atoms: C_5  and  C_6
REMARK    5  A    between atoms: C_12  and  C_13
REMARK                            x       y       z     vdW  Elec       q    Type
REMARK                         _______ _______ _______ _____ _____    ______ ____
ROOT
ATOM      1  C   UNL     1     -10.530  16.468  67.608  0.00  0.00    +0.090 C 
ATOM      2  N   UNL     1     -11.064  15.131  67.656  0.00  0.00    -0.264 NA
ENDROOT
BRANCH   2   3
ATOM      3  C   UNL     1     -10.627  14.369  68.792  0.00  0.00    +0.099 C 
BRANCH   3   4
ATOM      4  C   UNL     1     -11.639  13.397  69.277  0.00  0.00    -0.006 A 
ATOM      5  C   UNL     1     -12.434  13.756  70.359  0.00  0.00    -0.003 A 
ATOM      6  C   UNL     1     -12.761  12.863  71.367  0.00  0.00    -0.000 A 
ATOM      7  C   UNL     1     -13.420  13.319  72.503  0.00  0.00    -0.000 A 
ATOM      8  C   UNL     1     -13.358  14.691  72.714  0.00  0.00    -0.000 A 
ATOM      9  C   UNL     1     -13.345  15.573  71.645  0.00  0.00    -0.000 A 
ATOM     10  C   UNL     1     -12.786  11.517  71.024  0.00  0.00    -0.000 A 
ATOM     11  C   UNL     1     -11.912  11.107  70.041  0.00  0.00    -0.000 A 
ATOM     12  C   UNL     1     -12.877  15.059  70.441  0.00  0.00    -0.000 A 
ATOM     13  C   UNL     1     -11.349  12.040  69.182  0.00  0.00    -0.003 A 
ENDBRANCH   3   4
ENDBRANCH   2   3
BRANCH   2  14
ATOM     14  C   UNL     1     -10.620  14.403  66.469  0.00  0.00    +0.099 C 
BRANCH  14  15
ATOM     15  C   UNL     1     -11.856  14.162  65.659  0.00  0.00    -0.009 C 
ATOM     16  C   UNL     1     -12.243  12.885  65.617  0.00  0.00    -0.003 C 
BRANCH  16  17
ATOM     17  C   UNL     1     -11.220  11.970  65.092  0.00  0.00    -0.000 A 
ATOM     18  C   UNL     1     -10.700  10.930  65.813  0.00  0.00    -0.000 A 
ATOM     19  C   UNL     1      -9.940   9.974  65.155  0.00  0.00    -0.000 A 
ATOM     20  C   UNL     1      -9.539  10.212  63.848  0.00  0.00    -0.000 A 
ATOM     21  C   UNL     1     -10.111  11.220  63.101  0.00  0.00    -0.000 A 
ATOM     22  C   UNL     1     -11.125  11.932  63.706  0.00  0.00    -0.000 A 
ENDBRANCH  16  17
ENDBRANCH  14  15
ENDBRANCH   2  14
TORSDOF 5
ENDMDL
MODEL 2
REMARK VINA RESULT:      -6.6      2.475      6.665
REMARK  Name = 
REMARK  5 active torsions:
REMARK  status: ('A' for Active; 'I' for Inactive)
REMARK    1  A    between atoms: N_2  and  C_3
REMARK    2  A    between atoms: N_2  and  C_12
REMARK    3  A    between atoms: C_3  and  C_4
REMARK    4  A    between atoms: C_5  and  C_6
REMARK    5  A    between atoms: C_12  and  C_13
REMARK                            x       y       z     vdW  Elec       q    Type
REMARK                         _______ _______ _______ _____ _____    ______ ____
ROOT
ATOM      1  C   UNL     1     -11.656  15.687  68.591  0.00  0.00    +0.090 C 
ATOM      2  N   UNL     1     -11.195  14.854  67.511  0.00  0.00    -0.264 NA
ENDROOT
BRANCH   2   3
ATOM      3  C   UNL     1     -11.608  13.482  67.615  0.00  0.00    +0.099 C 
BRANCH   3   4
ATOM      4  C   UNL     1     -11.975  12.873  66.311  0.00  0.00    -0.006 A 
ATOM      5  C   UNL     1     -11.276  11.749  65.888  0.00  0.00    -0.003 A 
ATOM      6  C   UNL     1     -10.891  11.570  64.568  0.00  0.00    -0.000 A 
ATOM      7  C   UNL     1     -10.055  10.511  64.232  0.00  0.00    -0.000 A 
ATOM      8  C   UNL     1      -9.360   9.945  65.294  0.00  0.00    -0.000 A 
ATOM      9  C   UNL     1      -9.930   9.871  66.556  0.00  0.00    -0.000 A 
ATOM     10  C   UNL     1     -11.673  12.192  63.602  0.00  0.00    -0.000 A 
ATOM     11  C   UNL     1     -12.275  13.380  63.955  0.00  0.00    -0.000 A 
ATOM     12  C   UNL     1     -10.923  10.804  66.827  0.00  0.00    -0.000 A 
ATOM     13  C   UNL     1     -12.421  13.710  65.295  0.00  0.00    -0.003 A 
ENDBRANCH   3   4
ENDBRANCH   2   3
BRANCH   2  14
ATOM     14  C   UNL     1      -9.733  14.850  67.507  0.00  0.00    +0.099 C 
BRANCH  14  15
ATOM     15  C   UNL     1      -9.333  15.383  66.167  0.00  0.00    -0.009 C 
ATOM     16  C   UNL     1      -8.500  16.425  66.218  0.00  0.00    -0.003 C 
BRANCH  16  17
ATOM     17  C   UNL     1      -9.024  17.568  66.979  0.00  0.00    -0.000 A 
ATOM     18  C   UNL     1      -8.340  18.169  68.000  0.00  0.00    -0.000 A 
ATOM     19  C   UNL     1      -8.794  19.389  68.480  0.00  0.00    -0.000 A 
ATOM     20  C   UNL     1     -10.039  19.853  68.081  0.00  0.00    -0.000 A 
ATOM     21  C   UNL     1     -10.697  19.287  67.009  0.00  0.00    -0.000 A 
ATOM     22  C   UNL     1     -10.031  18.282  66.340  0.00  0.00    -0.000 A 
ENDBRANCH  16  17
ENDBRANCH  14  15
ENDBRANCH   2  14
TORSDOF 5
ENDMDL
MODEL 3
REMARK VINA RESULT:      -6.5      1.704      6.780
REMARK  Name = 
REMARK  5 active torsions:
REMARK  status: ('A' for Active; 'I' for Inactive)
REMARK    1  A    between atoms: N_2  and  C_3
REMARK    2  A    between atoms: N_2  and  C_12
REMARK    3  A    between atoms: C_3  and  C_4
REMARK    4  A    between atoms: C_5  and  C_6
REMARK    5  A    between atoms: C_12  and  C_13
REMARK                            x       y       z     vdW  Elec       q    Type
REMARK                         _______ _______ _______ _____ _____    ______ ____
ROOT
ATOM      1  C   UNL     1     -11.726  11.128  69.151  0.00  0.00    +0.090 C 
ATOM      2  N   UNL     1     -11.513  12.326  68.381  0.00  0.00    -0.264 NA
ENDROOT
BRANCH   2   3
ATOM      3  C   UNL     1     -10.341  12.286  67.552  0.00  0.00    +0.099 C 
BRANCH   3   4
ATOM      4  C   UNL     1     -10.599  12.670  66.141  0.00  0.00    -0.006 A 
ATOM      5  C   UNL     1     -10.400  13.994  65.770  0.00  0.00    -0.003 A 
ATOM      6  C   UNL     1     -11.261  14.661  64.913  0.00  0.00    -0.000 A 
ATOM      7  C   UNL     1     -11.105  16.027  64.706  0.00  0.00    -0.000 A 
ATOM      8  C   UNL     1     -10.347  16.689  65.665  0.00  0.00    -0.000 A 
ATOM      9  C   UNL     1      -9.278  16.059  66.282  0.00  0.00    -0.000 A 
ATOM     10  C   UNL     1     -11.961  13.880  64.001  0.00  0.00    -0.000 A 
ATOM     11  C   UNL     1     -12.287  12.601  64.395  0.00  0.00    -0.000 A 
ATOM     12  C   UNL     1      -9.326  14.670  66.308  0.00  0.00    -0.000 A 
ATOM     13  C   UNL     1     -11.611  12.009  65.453  0.00  0.00    -0.003 A 
ENDBRANCH   3   4
ENDBRANCH   2   3
BRANCH   2  14
ATOM     14  C   UNL     1     -11.337  13.451  69.297  0.00  0.00    +0.099 C 
BRANCH  14  15
ATOM     15  C   UNL     1     -12.074  14.596  68.673  0.00  0.00    -0.009 C 
ATOM     16  C   UNL     1     -12.028  15.727  69.380  0.00  0.00    -0.003 C 
BRANCH  16  17
ATOM     17  C   UNL     1     -12.549  15.595  70.748  0.00  0.00    -0.000 A 
ATOM     18  C   UNL     1     -13.591  14.774  71.080  0.00  0.00    -0.000 A 
ATOM     19  C   UNL     1     -13.840  14.519  72.421  0.00  0.00    -0.000 A 
ATOM     20  C   UNL     1     -13.185  15.272  73.385  0.00  0.00    -0.000 A 
ATOM     21  C   UNL     1     -12.094  16.049  73.060  0.00  0.00    -0.000 A 
ATOM     22  C   UNL     1     -11.670  15.993  71.749  0.00  0.00    -0.000 A 
ENDBRANCH  16  17
ENDBRANCH  14  15
ENDBRANCH   2  14
TORSDOF 5
ENDMDL
MODEL 4
REMARK VINA RESULT:      -6.5      1.344      7.358
REMARK  Name = 
REMARK  5 active torsions:
REMARK  status: ('A' for Active; 'I' for Inactive)
REMARK    1  A    between atoms: N_2  and  C_3
REMARK    2  A    between atoms: N_2  and  C_12
REMARK    3  A    between atoms: C_3  and  C_4
REMARK    4  A    between atoms: C_5  and  C_6
REMARK    5  A    between atoms: C_12  and  C_13
REMARK                            x       y       z     vdW  Elec       q    Type
REMARK                         _______ _______ _______ _____ _____    ______ ____
ROOT
ATOM      1  C   UNL     1     -11.812  11.973  69.723  0.00  0.00    +0.090 C 
ATOM      2  N   UNL     1     -11.522  12.698  68.514  0.00  0.00    -0.264 NA
ENDROOT
BRANCH   2   3
ATOM      3  C   UNL     1     -10.677  11.987  67.596  0.00  0.00    +0.099 C 
BRANCH   3   4
ATOM      4  C   UNL     1     -11.314  11.735  66.278  0.00  0.00    -0.006 A 
ATOM      5  C   UNL     1     -10.648  10.924  65.367  0.00  0.00    -0.003 A 
ATOM      6  C   UNL     1     -10.607  11.210  64.012  0.00  0.00    -0.000 A 
ATOM      7  C   UNL     1      -9.793  10.457  63.173  0.00  0.00    -0.000 A 
ATOM      8  C   UNL     1      -8.794   9.732  63.812  0.00  0.00    -0.000 A 
ATOM      9  C   UNL     1      -9.004   9.192  65.072  0.00  0.00    -0.000 A 
ATOM     10  C   UNL     1     -11.669  11.945  63.498  0.00  0.00    -0.000 A 
ATOM     11  C   UNL     1     -12.265  12.854  64.344  0.00  0.00    -0.000 A 
ATOM     12  C   UNL     1      -9.975   9.819  65.844  0.00  0.00    -0.000 A 
ATOM     13  C   UNL     1     -12.086  12.745  65.716  0.00  0.00    -0.003 A 
ENDBRANCH   3   4
ENDBRANCH   2   3
BRANCH   2  14
ATOM     14  C   UNL     1     -10.816  13.931  68.860  0.00  0.00    +0.099 C 
BRANCH  14  15
ATOM     15  C   UNL     1     -11.747  15.044  68.490  0.00  0.00    -0.009 C 
ATOM     16  C   UNL     1     -11.819  16.021  69.397  0.00  0.00    -0.003 C 
BRANCH  16  17
ATOM     17  C   UNL     1     -12.229  15.566  70.732  0.00  0.00    -0.000 A 
ATOM     18  C   UNL     1     -11.570  15.912  71.880  0.00  0.00    -0.000 A 
ATOM     19  C   UNL     1     -12.174  15.652  73.102  0.00  0.00    -0.000 A 
ATOM     20  C   UNL     1     -13.307  14.854  73.139  0.00  0.00    -0.000 A 
ATOM     21  C   UNL     1     -14.008  14.560  71.988  0.00  0.00    -0.000 A 
ATOM     22  C   UNL     1     -13.549  15.140  70.825  0.00  0.00    -0.000 A 
ENDBRANCH  16  17
ENDBRANCH  14  15
ENDBRANCH   2  14
TORSDOF 5
ENDMDL
MODEL 5
REMARK VINA RESULT:      -6.4      1.577      5.873
REMARK  Name = 
REMARK  5 active torsions:
REMARK  status: ('A' for Active; 'I' for Inactive)
REMARK    1  A    between atoms: N_2  and  C_3
REMARK    2  A    between atoms: N_2  and  C_12
REMARK    3  A    between atoms: C_3  and  C_4
REMARK    4  A    between atoms: C_5  and  C_6
REMARK    5  A    between atoms: C_12  and  C_13
REMARK                            x       y       z     vdW  Elec       q    Type
REMARK                         _______ _______ _______ _____ _____    ______ ____
ROOT
ATOM      1  C   UNL     1      -9.482  14.369  66.626  0.00  0.00    +0.090 C 
ATOM      2  N   UNL     1     -10.094  13.528  67.621  0.00  0.00    -0.264 NA
ENDROOT
BRANCH   2   3
ATOM      3  C   UNL     1     -11.333  12.933  67.201  0.00  0.00    +0.099 C 
BRANCH   3   4
ATOM      4  C   UNL     1     -11.274  11.453  67.097  0.00  0.00    -0.006 A 
ATOM      5  C   UNL     1     -11.324  10.707  68.268  0.00  0.00    -0.003 A 
ATOM      6  C   UNL     1     -10.536   9.584  68.465  0.00  0.00    -0.000 A 
ATOM      7  C   UNL     1     -10.507   8.973  69.714  0.00  0.00    -0.000 A 
ATOM      8  C   UNL     1     -10.964   9.756  70.767  0.00  0.00    -0.000 A 
ATOM      9  C   UNL     1     -11.991  10.668  70.579  0.00  0.00    -0.000 A 
ATOM     10  C   UNL     1     -10.145   8.890  67.326  0.00  0.00    -0.000 A 
ATOM     11  C   UNL     1      -9.961   9.628  66.178  0.00  0.00    -0.000 A 
ATOM     12  C   UNL     1     -12.161  11.129  69.279  0.00  0.00    -0.000 A 
ATOM     13  C   UNL     1     -10.522  10.893  66.071  0.00  0.00    -0.003 A 
ENDBRANCH   3   4
ENDBRANCH   2   3
BRANCH   2  14
ATOM     14  C   UNL     1     -10.399  14.336  68.801  0.00  0.00    +0.099 C 
BRANCH  14  15
ATOM     15  C   UNL     1     -11.640  15.099  68.456  0.00  0.00    -0.009 C 
ATOM     16  C   UNL     1     -11.982  16.024  69.355  0.00  0.00    -0.003 C 
BRANCH  16  17
ATOM     17  C   UNL     1     -12.186  15.490  70.709  0.00  0.00    -0.000 A 
ATOM     18  C   UNL     1     -11.789  16.144  71.843  0.00  0.00    -0.000 A 
ATOM     19  C   UNL     1     -12.251  15.693  73.071  0.00  0.00    -0.000 A 
ATOM     20  C   UNL     1     -12.908  14.474  73.140  0.00  0.00    -0.000 A 
ATOM     21  C   UNL     1     -13.367  13.848  72.000  0.00  0.00    -0.000 A 
ATOM     22  C   UNL     1     -13.179  14.522  70.812  0.00  0.00    -0.000 A 
ENDBRANCH  16  17
ENDBRANCH  14  15
ENDBRANCH   2  14
TORSDOF 5
ENDMDL
MODEL 6
REMARK VINA RESULT:      -6.4      1.930      4.094
REMARK  Name = 
REMARK  5 active torsions:
REMARK  status: ('A' for Active; 'I' for Inactive)
REMARK    1  A    between atoms: N_2  and  C_3
REMARK    2  A    between atoms: N_2  and  C_12
REMARK    3  A    between atoms: C_3  and  C_4
REMARK    4  A    between atoms: C_5  and  C_6
REMARK    5  A    between atoms: C_12  and  C_13
REMARK                            x       y       z     vdW  Elec       q    Type
REMARK                         _______ _______ _______ _____ _____    ______ ____
ROOT
ATOM      1  C   UNL     1      -9.848   8.353  66.815  0.00  0.00    +0.090 C 
ATOM      2  N   UNL     1      -9.814   9.718  67.272  0.00  0.00    -0.264 NA
ENDROOT
BRANCH   2   3
ATOM      3  C   UNL     1     -11.108  10.265  67.574  0.00  0.00    +0.099 C 
BRANCH   3   4
ATOM      4  C   UNL     1     -11.082  11.290  68.648  0.00  0.00    -0.006 A 
ATOM      5  C   UNL     1     -11.630  10.967  69.883  0.00  0.00    -0.003 A 
ATOM      6  C   UNL     1     -12.390  11.866  70.614  0.00  0.00    -0.000 A 
ATOM      7  C   UNL     1     -13.048  11.438  71.762  0.00  0.00    -0.000 A 
ATOM      8  C   UNL     1     -13.210  10.062  71.874  0.00  0.00    -0.000 A 
ATOM      9  C   UNL     1     -12.246   9.193  71.386  0.00  0.00    -0.000 A 
ATOM     10  C   UNL     1     -12.128  13.215  70.408  0.00  0.00    -0.000 A 
ATOM     11  C   UNL     1     -11.706  13.583  69.149  0.00  0.00    -0.000 A 
ATOM     12  C   UNL     1     -11.439   9.692  70.371  0.00  0.00    -0.000 A 
ATOM     13  C   UNL     1     -11.190  12.628  68.284  0.00  0.00    -0.003 A 
ENDBRANCH   3   4
ENDBRANCH   2   3
BRANCH   2  14
ATOM     14  C   UNL     1      -9.245  10.555  66.217  0.00  0.00    +0.099 C 
BRANCH  14  15
ATOM     15  C   UNL     1      -9.972  10.174  64.964  0.00  0.00    -0.009 C 
ATOM     16  C   UNL     1     -10.083  11.163  64.074  0.00  0.00    -0.003 C 
BRANCH  16  17
ATOM     17  C   UNL     1     -10.756  12.360  64.596  0.00  0.00    -0.000 A 
ATOM     18  C   UNL     1     -10.147  13.581  64.697  0.00  0.00    -0.000 A 
ATOM     19  C   UNL     1     -10.929  14.699  64.952  0.00  0.00    -0.000 A 
ATOM     20  C   UNL     1     -12.255  14.526  65.321  0.00  0.00    -0.000 A 
ATOM     21  C   UNL     1     -12.886  13.311  65.157  0.00  0.00    -0.000 A 
ATOM     22  C   UNL     1     -12.145  12.309  64.567  0.00  0.00    -0.000 A 
ENDBRANCH  16  17
ENDBRANCH  14  15
ENDBRANCH   2  14
TORSDOF 5
ENDMDL
MODEL 7
REMARK VINA RESULT:      -6.4      1.415      3.283
REMARK  Name = 
REMARK  5 active torsions:
REMARK  status: ('A' for Active; 'I' for Inactive)
REMARK    1  A    between atoms: N_2  and  C_3
REMARK    2  A    between atoms: N_2  and  C_12
REMARK    3  A    between atoms: C_3  and  C_4
REMARK    4  A    between atoms: C_5  and  C_6
REMARK    5  A    between atoms: C_12  and  C_13
REMARK                            x       y       z     vdW  Elec       q    Type
REMARK                         _______ _______ _______ _____ _____    ______ ____
ROOT
ATOM      1  C   UNL     1     -11.004  10.020  70.014  0.00  0.00    +0.090 C 
ATOM      2  N   UNL     1     -10.887  10.981  68.948  0.00  0.00    -0.264 NA
ENDROOT
BRANCH   2   3
ATOM      3  C   UNL     1     -11.893  12.006  68.973  0.00  0.00    +0.099 C 
BRANCH   3   4
ATOM      4  C   UNL     1     -11.442  13.263  69.621  0.00  0.00    -0.006 A 
ATOM      5  C   UNL     1     -12.233  13.810  70.625  0.00  0.00    -0.003 A 
ATOM      6  C   UNL     1     -12.452  15.174  70.735  0.00  0.00    -0.000 A 
ATOM      7  C   UNL     1     -13.379  15.650  71.654  0.00  0.00    -0.000 A 
ATOM      8  C   UNL     1     -14.291  14.710  72.118  0.00  0.00    -0.000 A 
ATOM      9  C   UNL     1     -13.920  13.384  72.286  0.00  0.00    -0.000 A 
ATOM     10  C   UNL     1     -11.461  16.007  70.230  0.00  0.00    -0.000 A 
ATOM     11  C   UNL     1     -10.746  15.542  69.148  0.00  0.00    -0.000 A 
ATOM     12  C   UNL     1     -12.847  12.954  71.513  0.00  0.00    -0.000 A 
ATOM     13  C   UNL     1     -10.741  14.186  68.853  0.00  0.00    -0.003 A 
ENDBRANCH   3   4
ENDBRANCH   2   3
BRANCH   2  14
ATOM     14  C   UNL     1     -11.031  10.288  67.669  0.00  0.00    +0.099 C 
BRANCH  14  15
ATOM     15  C   UNL     1      -9.703  10.420  66.989  0.00  0.00    -0.009 C 
ATOM     16  C   UNL     1      -9.479  11.623  66.456  0.00  0.00    -0.003 C 
BRANCH  16  17
ATOM     17  C   UNL     1     -10.491  12.037  65.474  0.00  0.00    -0.000 A 
ATOM     18  C   UNL     1     -11.130  13.246  65.516  0.00  0.00    -0.000 A 
ATOM     19  C   UNL     1     -11.869  13.650  64.413  0.00  0.00    -0.000 A 
ATOM     20  C   UNL     1     -12.129  12.737  63.402  0.00  0.00    -0.000 A 
ATOM     21  C   UNL     1     -11.436  11.547  63.324  0.00  0.00    -0.000 A 
ATOM     22  C   UNL     1     -10.451  11.346  64.268  0.00  0.00    -0.000 A 
ENDBRANCH  16  17
ENDBRANCH  14  15
ENDBRANCH   2  14
TORSDOF 5
ENDMDL
MODEL 8
REMARK VINA RESULT:      -6.4      1.352      2.240
REMARK  Name = 
REMARK  5 active torsions:
REMARK  status: ('A' for Active; 'I' for Inactive)
REMARK    1  A    between atoms: N_2  and  C_3
REMARK    2  A    between atoms: N_2  and  C_12
REMARK    3  A    between atoms: C_3  and  C_4
REMARK    4  A    between atoms: C_5  and  C_6
REMARK    5  A    between atoms: C_12  and  C_13
REMARK                            x       y       z     vdW  Elec       q    Type
REMARK                         _______ _______ _______ _____ _____    ______ ____
ROOT
ATOM      1  C   UNL     1      -8.625  16.913  67.884  0.00  0.00    +0.090 C 
ATOM      2  N   UNL     1      -9.927  16.846  68.494  0.00  0.00    -0.264 NA
ENDROOT
BRANCH   2   3
ATOM      3  C   UNL     1     -10.013  15.920  69.588  0.00  0.00    +0.099 C 
BRANCH   3   4
ATOM      4  C   UNL     1     -10.912  14.769  69.321  0.00  0.00    -0.006 A 
ATOM      5  C   UNL     1     -11.939  14.511  70.220  0.00  0.00    -0.003 A 
ATOM      6  C   UNL     1     -12.283  13.224  70.604  0.00  0.00    -0.000 A 
ATOM      7  C   UNL     1     -13.206  13.033  71.626  0.00  0.00    -0.000 A 
ATOM      8  C   UNL     1     -13.422  14.137  72.443  0.00  0.00    -0.000 A 
ATOM      9  C   UNL     1     -13.369  15.422  71.927  0.00  0.00    -0.000 A 
ATOM     10  C   UNL     1     -12.012  12.210  69.693  0.00  0.00    -0.000 A 
ATOM     11  C   UNL     1     -10.917  12.381  68.875  0.00  0.00    -0.000 A 
ATOM     12  C   UNL     1     -12.609  15.581  70.774  0.00  0.00    -0.000 A 
ATOM     13  C   UNL     1     -10.378  13.648  68.696  0.00  0.00    -0.003 A 
ENDBRANCH   3   4
ENDBRANCH   2   3
BRANCH   2  14
ATOM     14  C   UNL     1     -10.895  16.400  67.493  0.00  0.00    +0.099 C 
BRANCH  14  15
ATOM     15  C   UNL     1     -10.219  16.586  66.170  0.00  0.00    -0.009 C 
ATOM     16  C   UNL     1     -10.889  16.071  65.136  0.00  0.00    -0.003 C 
BRANCH  16  17
ATOM     17  C   UNL     1     -11.164  14.633  65.262  0.00  0.00    -0.000 A 
ATOM     18  C   UNL     1     -12.427  14.106  65.255  0.00  0.00    -0.000 A 
ATOM     19  C   UNL     1     -12.576  12.733  65.118  0.00  0.00    -0.000 A 
ATOM     20  C   UNL     1     -11.459  11.917  65.220  0.00  0.00    -0.000 A 
ATOM     21  C   UNL     1     -10.186  12.445  65.161  0.00  0.00    -0.000 A 
ATOM     22  C   UNL     1     -10.094  13.804  64.947  0.00  0.00    -0.000 A 
ENDBRANCH  16  17
ENDBRANCH  14  15
ENDBRANCH   2  14
TORSDOF 5
ENDMDL
MODEL 9
REMARK VINA RESULT:      -6.4      1.606      3.108
REMARK  Name = 
REMARK  5 active torsions:
REMARK  status: ('A' for Active; 'I' for Inactive)
REMARK    1  A    between atoms: N_2  and  C_3
REMARK    2  A    between atoms: N_2  and  C_12
REMARK    3  A    between atoms: C_3  and  C_4
REMARK    4  A    between atoms: C_5  and  C_6
REMARK    5  A    between atoms: C_12  and  C_13
REMARK                            x       y       z     vdW  Elec       q    Type
REMARK                         _______ _______ _______ _____ _____    ______ ____
ROOT
ATOM      1  C   UNL     1      -9.943  16.200  69.509  0.00  0.00    +0.090 C 
ATOM      2  N   UNL     1     -11.184  16.406  68.808  0.00  0.00    -0.264 NA
ENDROOT
BRANCH   2   3
ATOM      3  C   UNL     1     -12.124  15.330  68.956  0.00  0.00    +0.099 C 
BRANCH   3   4
ATOM      4  C   UNL     1     -12.257  14.848  70.354  0.00  0.00    -0.006 A 
ATOM      5  C   UNL     1     -12.235  13.478  70.585  0.00  0.00    -0.003 A 
ATOM      6  C   UNL     1     -13.077  12.868  71.502  0.00  0.00    -0.000 A 
ATOM      7  C   UNL     1     -13.127  11.480  71.574  0.00  0.00    -0.000 A 
ATOM      8  C   UNL     1     -12.623  10.811  70.465  0.00  0.00    -0.000 A 
ATOM      9  C   UNL     1     -11.553  11.328  69.750  0.00  0.00    -0.000 A 
ATOM     10  C   UNL     1     -13.511  13.650  72.565  0.00  0.00    -0.000 A 
ATOM     11  C   UNL     1     -13.667  14.998  72.327  0.00  0.00    -0.000 A 
ATOM     12  C   UNL     1     -11.370  12.702  69.843  0.00  0.00    -0.000 A 
ATOM     13  C   UNL     1     -13.044  15.583  71.233  0.00  0.00    -0.003 A 
ENDBRANCH   3   4
ENDBRANCH   2   3
BRANCH   2  14
ATOM     14  C   UNL     1     -10.904  16.521  67.377  0.00  0.00    +0.099 C 
BRANCH  14  15
ATOM     15  C   UNL     1      -9.551  15.909  67.182  0.00  0.00    -0.009 C 
ATOM     16  C   UNL     1      -9.363  15.371  65.975  0.00  0.00    -0.003 C 
BRANCH  16  17
ATOM     17  C   UNL     1     -10.343  14.332  65.627  0.00  0.00    -0.000 A 
ATOM     18  C   UNL     1     -10.552  13.212  66.383  0.00  0.00    -0.000 A 
ATOM     19  C   UNL     1     -11.665  12.426  66.121  0.00  0.00    -0.000 A 
ATOM     20  C   UNL     1     -12.402  12.661  64.970  0.00  0.00    -0.000 A 
ATOM     21  C   UNL     1     -12.237  13.822  64.245  0.00  0.00    -0.000 A 
ATOM     22  C   UNL     1     -11.344  14.742  64.753  0.00  0.00    -0.000 A 
ENDBRANCH  16  17
ENDBRANCH  14  15
ENDBRANCH   2  14
TORSDOF 5
ENDMDL
