MODEL 1
REMARK VINA RESULT:      -7.6      0.000      0.000
REMARK  Name = 
REMARK  6 active torsions:
REMARK  status: ('A' for Active; 'I' for Inactive)
REMARK    1  A    between atoms: C_3  and  O_4
REMARK    2  A    between atoms: O_4  and  C_5
REMARK    3  A    between atoms: C_5  and  C_6
REMARK    4  A    between atoms: C_13  and  C_14
REMARK    5  A    between atoms: C_14  and  S_15
REMARK    6  A    between atoms: S_15  and  C_17
REMARK                            x       y       z     vdW  Elec       q    Type
REMARK                         _______ _______ _______ _____ _____    ______ ____
ROOT
ATOM      1  C   UNL     1     -12.136  15.294  68.982  0.00  0.00    +0.035 C 
ATOM      2  C   UNL     1     -12.086  13.923  69.122  0.00  0.00    +0.027 A 
ATOM      3  C   UNL     1     -11.819  13.167  67.989  0.00  0.00    +0.072 A 
ATOM      4  N   UNL     1     -11.874  11.818  68.053  0.00  0.00    -0.247 NA
ATOM      5  C   UNL     1     -12.214  11.228  69.215  0.00  0.00    +0.102 A 
ATOM      6  C   UNL     1     -12.015  11.909  70.393  0.00  0.00    +0.057 A 
ATOM      7  C   UNL     1     -12.054  13.281  70.353  0.00  0.00    +0.138 A 
ENDROOT
BRANCH   3   8
ATOM      8  C   UNL     1     -11.830  13.835  66.657  0.00  0.00    +0.145 C 
BRANCH   8   9
ATOM      9  S   UNL     1     -10.096  13.901  66.038  0.00  0.00    +0.107 S 
ATOM     10  O   UNL     1     -10.364  13.849  64.504  0.00  0.00    -0.248 OA
BRANCH   9  11
ATOM     11  C   UNL     1      -9.735  15.655  66.295  0.00  0.00    +0.221 A 
ATOM     12  N   UNL     1     -10.114  16.703  65.576  0.00  0.00    -0.218 NA
ATOM     13  C   UNL     1      -9.882  17.836  66.272  0.00  0.00    +0.101 A 
ATOM     14  C   UNL     1      -9.245  17.465  67.426  0.00  0.00    +0.101 A 
ATOM     15  C   UNL     1      -9.048  18.430  68.405  0.00  0.00    +0.021 A 
ATOM     16  C   UNL     1      -9.444  19.738  68.219  0.00  0.00    +0.002 A 
ATOM     17  C   UNL     1     -10.225  20.004  67.118  0.00  0.00    +0.002 A 
ATOM     18  C   UNL     1     -10.446  19.089  66.113  0.00  0.00    +0.021 A 
ATOM     19  N   UNL     1      -9.138  16.117  67.411  0.00  0.00    -0.218 NA
ENDBRANCH   9  11
ENDBRANCH   8   9
ENDBRANCH   3   8
BRANCH   7  20
ATOM     20  O   UNL     1     -12.058  14.092  71.471  0.00  0.00    -0.467 OA
BRANCH  20  21
ATOM     21  C   UNL     1     -13.141  14.229  72.356  0.00  0.00    +0.308 C 
BRANCH  21  22
ATOM     22  C   UNL     1     -13.169  15.572  73.040  0.00  0.00    +0.438 C 
ATOM     23  F   UNL     1     -12.819  15.438  74.373  0.00  0.00    -0.166 F 
ATOM     24  F   UNL     1     -14.380  16.209  72.931  0.00  0.00    -0.166 F 
ATOM     25  F   UNL     1     -12.223  16.370  72.426  0.00  0.00    -0.166 F 
ENDBRANCH  21  22
ENDBRANCH  20  21
ENDBRANCH   7  20
TORSDOF 6
ENDMDL
MODEL 2
REMARK VINA RESULT:      -7.0      2.641      3.149
REMARK  Name = 
REMARK  6 active torsions:
REMARK  status: ('A' for Active; 'I' for Inactive)
REMARK    1  A    between atoms: C_3  and  O_4
REMARK    2  A    between atoms: O_4  and  C_5
REMARK    3  A    between atoms: C_5  and  C_6
REMARK    4  A    between atoms: C_13  and  C_14
REMARK    5  A    between atoms: C_14  and  S_15
REMARK    6  A    between atoms: S_15  and  C_17
REMARK                            x       y       z     vdW  Elec       q    Type
REMARK                         _______ _______ _______ _____ _____    ______ ____
ROOT
ATOM      1  C   UNL     1     -12.062  12.900  69.794  0.00  0.00    +0.035 C 
ATOM      2  C   UNL     1     -11.609  11.941  68.912  0.00  0.00    +0.027 A 
ATOM      3  C   UNL     1     -11.434  12.313  67.587  0.00  0.00    +0.072 A 
ATOM      4  N   UNL     1     -11.103  11.380  66.665  0.00  0.00    -0.247 NA
ATOM      5  C   UNL     1     -10.973  10.095  67.047  0.00  0.00    +0.102 A 
ATOM      6  C   UNL     1     -10.684   9.815  68.362  0.00  0.00    +0.057 A 
ATOM      7  C   UNL     1     -11.102  10.712  69.314  0.00  0.00    +0.138 A 
ENDROOT
BRANCH   3   8
ATOM      8  C   UNL     1     -11.954  13.634  67.134  0.00  0.00    +0.145 C 
BRANCH   8   9
ATOM      9  S   UNL     1     -11.042  14.110  65.605  0.00  0.00    +0.107 S 
ATOM     10  O   UNL     1     -12.247  14.475  64.686  0.00  0.00    -0.248 OA
BRANCH   9  11
ATOM     11  C   UNL     1     -10.438  15.744  66.092  0.00  0.00    +0.221 A 
ATOM     12  N   UNL     1     -10.404  16.869  65.392  0.00  0.00    -0.218 NA
ATOM     13  C   UNL     1     -10.157  17.908  66.218  0.00  0.00    +0.101 A 
ATOM     14  C   UNL     1      -9.934  17.378  67.461  0.00  0.00    +0.101 A 
ATOM     15  C   UNL     1      -9.827  18.251  68.535  0.00  0.00    +0.021 A 
ATOM     16  C   UNL     1      -9.903  19.617  68.366  0.00  0.00    +0.002 A 
ATOM     17  C   UNL     1     -10.295  20.073  67.129  0.00  0.00    +0.002 A 
ATOM     18  C   UNL     1     -10.409  19.255  66.027  0.00  0.00    +0.021 A 
ATOM     19  N   UNL     1     -10.085  16.038  67.359  0.00  0.00    -0.218 NA
ENDBRANCH   9  11
ENDBRANCH   8   9
ENDBRANCH   3   8
BRANCH   7  20
ATOM     20  O   UNL     1     -11.051  10.482  70.675  0.00  0.00    -0.467 OA
BRANCH  20  21
ATOM     21  C   UNL     1     -11.695   9.420  71.331  0.00  0.00    +0.308 C 
BRANCH  21  22
ATOM     22  C   UNL     1     -13.108   9.754  71.735  0.00  0.00    +0.438 C 
ATOM     23  F   UNL     1     -13.518   8.930  72.770  0.00  0.00    -0.166 F 
ATOM     24  F   UNL     1     -14.000   9.684  70.694  0.00  0.00    -0.166 F 
ATOM     25  F   UNL     1     -13.111  11.056  72.198  0.00  0.00    -0.166 F 
ENDBRANCH  21  22
ENDBRANCH  20  21
ENDBRANCH   7  20
TORSDOF 6
ENDMDL
MODEL 3
REMARK VINA RESULT:      -7.0      2.901      5.852
REMARK  Name = 
REMARK  6 active torsions:
REMARK  status: ('A' for Active; 'I' for Inactive)
REMARK    1  A    between atoms: C_3  and  O_4
REMARK    2  A    between atoms: O_4  and  C_5
REMARK    3  A    between atoms: C_5  and  C_6
REMARK    4  A    between atoms: C_13  and  C_14
REMARK    5  A    between atoms: C_14  and  S_15
REMARK    6  A    between atoms: S_15  and  C_17
REMARK                            x       y       z     vdW  Elec       q    Type
REMARK                         _______ _______ _______ _____ _____    ______ ____
ROOT
ATOM      1  C   UNL     1      -8.546  14.656  66.980  0.00  0.00    +0.035 C 
ATOM      2  C   UNL     1      -9.668  14.529  66.189  0.00  0.00    +0.027 A 
ATOM      3  C   UNL     1     -10.382  13.341  66.266  0.00  0.00    +0.072 A 
ATOM      4  N   UNL     1     -11.420  13.125  65.427  0.00  0.00    -0.247 NA
ATOM      5  C   UNL     1     -11.729  14.061  64.509  0.00  0.00    +0.102 A 
ATOM      6  C   UNL     1     -11.360  15.366  64.735  0.00  0.00    +0.057 A 
ATOM      7  C   UNL     1     -10.248  15.591  65.509  0.00  0.00    +0.138 A 
ENDROOT
BRANCH   3   8
ATOM      8  C   UNL     1      -9.789  12.191  67.005  0.00  0.00    +0.145 C 
BRANCH   8   9
ATOM      9  S   UNL     1     -11.165  11.248  67.789  0.00  0.00    +0.107 S 
ATOM     10  O   UNL     1     -10.345  10.124  68.491  0.00  0.00    -0.248 OA
BRANCH   9  11
ATOM     11  C   UNL     1     -11.553  12.346  69.173  0.00  0.00    +0.221 A 
ATOM     12  N   UNL     1     -11.473  13.668  69.242  0.00  0.00    -0.218 NA
ATOM     13  C   UNL     1     -12.131  14.103  70.337  0.00  0.00    +0.101 A 
ATOM     14  C   UNL     1     -12.548  12.989  71.014  0.00  0.00    +0.101 A 
ATOM     15  C   UNL     1     -13.405  13.161  72.094  0.00  0.00    +0.021 A 
ATOM     16  C   UNL     1     -13.803  14.414  72.507  0.00  0.00    +0.002 A 
ATOM     17  C   UNL     1     -13.488  15.472  71.686  0.00  0.00    +0.002 A 
ATOM     18  C   UNL     1     -12.638  15.362  70.609  0.00  0.00    +0.021 A 
ATOM     19  N   UNL     1     -12.159  11.912  70.295  0.00  0.00    -0.218 NA
ENDBRANCH   9  11
ENDBRANCH   8   9
ENDBRANCH   3   8
BRANCH   7  20
ATOM     20  O   UNL     1      -9.650  16.826  65.670  0.00  0.00    -0.467 OA
BRANCH  20  21
ATOM     21  C   UNL     1     -10.309  17.981  66.124  0.00  0.00    +0.308 C 
BRANCH  21  22
ATOM     22  C   UNL     1     -10.264  18.128  67.623  0.00  0.00    +0.438 C 
ATOM     23  F   UNL     1     -11.132  17.227  68.218  0.00  0.00    -0.166 F 
ATOM     24  F   UNL     1     -10.539  19.403  68.051  0.00  0.00    -0.166 F 
ATOM     25  F   UNL     1      -8.981  17.820  68.032  0.00  0.00    -0.166 F 
ENDBRANCH  21  22
ENDBRANCH  20  21
ENDBRANCH   7  20
TORSDOF 6
ENDMDL
MODEL 4
REMARK VINA RESULT:      -6.7      4.226      7.421
REMARK  Name = 
REMARK  6 active torsions:
REMARK  status: ('A' for Active; 'I' for Inactive)
REMARK    1  A    between atoms: C_3  and  O_4
REMARK    2  A    between atoms: O_4  and  C_5
REMARK    3  A    between atoms: C_5  and  C_6
REMARK    4  A    between atoms: C_13  and  C_14
REMARK    5  A    between atoms: C_14  and  S_15
REMARK    6  A    between atoms: S_15  and  C_17
REMARK                            x       y       z     vdW  Elec       q    Type
REMARK                         _______ _______ _______ _____ _____    ______ ____
ROOT
ATOM      1  C   UNL     1      -9.563  20.022  67.863  0.00  0.00    +0.035 C 
ATOM      2  C   UNL     1      -8.633  19.307  67.137  0.00  0.00    +0.027 A 
ATOM      3  C   UNL     1      -9.073  18.180  66.456  0.00  0.00    +0.072 A 
ATOM      4  N   UNL     1      -8.179  17.383  65.828  0.00  0.00    -0.247 NA
ATOM      5  C   UNL     1      -6.868  17.684  65.896  0.00  0.00    +0.102 A 
ATOM      6  C   UNL     1      -6.492  18.983  66.141  0.00  0.00    +0.057 A 
ATOM      7  C   UNL     1      -7.354  19.773  66.863  0.00  0.00    +0.138 A 
ENDROOT
BRANCH   3   8
ATOM      8  C   UNL     1     -10.447  17.669  66.720  0.00  0.00    +0.145 C 
BRANCH   8   9
ATOM      9  S   UNL     1     -10.329  16.353  68.004  0.00  0.00    +0.107 S 
ATOM     10  O   UNL     1     -11.665  16.608  68.763  0.00  0.00    -0.248 OA
BRANCH   9  11
ATOM     11  C   UNL     1     -10.738  14.900  67.007  0.00  0.00    +0.221 A 
ATOM     12  N   UNL     1     -11.921  14.349  66.775  0.00  0.00    -0.218 NA
ATOM     13  C   UNL     1     -11.819  13.473  65.753  0.00  0.00    +0.101 A 
ATOM     14  C   UNL     1     -10.494  13.420  65.412  0.00  0.00    +0.101 A 
ATOM     15  C   UNL     1     -10.140  12.719  64.267  0.00  0.00    +0.021 A 
ATOM     16  C   UNL     1     -11.080  12.059  63.504  0.00  0.00    +0.002 A 
ATOM     17  C   UNL     1     -12.402  12.294  63.803  0.00  0.00    +0.002 A 
ATOM     18  C   UNL     1     -12.811  12.973  64.929  0.00  0.00    +0.021 A 
ATOM     19  N   UNL     1      -9.837  14.287  66.215  0.00  0.00    -0.218 NA
ENDBRANCH   9  11
ENDBRANCH   8   9
ENDBRANCH   3   8
BRANCH   7  20
ATOM     20  O   UNL     1      -7.040  21.029  67.345  0.00  0.00    -0.467 OA
BRANCH  20  21
ATOM     21  C   UNL     1      -5.821  21.370  67.955  0.00  0.00    +0.308 C 
BRANCH  21  22
ATOM     22  C   UNL     1      -5.604  20.658  69.266  0.00  0.00    +0.438 C 
ATOM     23  F   UNL     1      -4.825  19.529  69.075  0.00  0.00    -0.166 F 
ATOM     24  F   UNL     1      -6.775  20.324  69.900  0.00  0.00    -0.166 F 
ATOM     25  F   UNL     1      -4.914  21.520  70.096  0.00  0.00    -0.166 F 
ENDBRANCH  21  22
ENDBRANCH  20  21
ENDBRANCH   7  20
TORSDOF 6
ENDMDL
MODEL 5
REMARK VINA RESULT:      -6.6      3.588      5.527
REMARK  Name = 
REMARK  6 active torsions:
REMARK  status: ('A' for Active; 'I' for Inactive)
REMARK    1  A    between atoms: C_3  and  O_4
REMARK    2  A    between atoms: O_4  and  C_5
REMARK    3  A    between atoms: C_5  and  C_6
REMARK    4  A    between atoms: C_13  and  C_14
REMARK    5  A    between atoms: C_14  and  S_15
REMARK    6  A    between atoms: S_15  and  C_17
REMARK                            x       y       z     vdW  Elec       q    Type
REMARK                         _______ _______ _______ _____ _____    ______ ____
ROOT
ATOM      1  C   UNL     1     -11.819  15.236  68.566  0.00  0.00    +0.035 C 
ATOM      2  C   UNL     1     -11.862  13.871  68.764  0.00  0.00    +0.027 A 
ATOM      3  C   UNL     1     -11.560  13.053  67.684  0.00  0.00    +0.072 A 
ATOM      4  N   UNL     1     -11.701  11.713  67.796  0.00  0.00    -0.247 NA
ATOM      5  C   UNL     1     -12.159  11.194  68.952  0.00  0.00    +0.102 A 
ATOM      6  C   UNL     1     -12.005  11.913  70.114  0.00  0.00    +0.057 A 
ATOM      7  C   UNL     1     -11.957  13.282  70.017  0.00  0.00    +0.138 A 
ENDROOT
BRANCH   3   8
ATOM      8  C   UNL     1     -11.436  13.662  66.330  0.00  0.00    +0.145 C 
BRANCH   8   9
ATOM      9  S   UNL     1     -12.225  12.521  65.117  0.00  0.00    +0.107 S 
ATOM     10  O   UNL     1     -12.566  13.537  63.986  0.00  0.00    -0.248 OA
BRANCH   9  11
ATOM     11  C   UNL     1     -10.755  11.702  64.451  0.00  0.00    +0.221 A 
ATOM     12  N   UNL     1     -10.125  10.622  64.892  0.00  0.00    -0.218 NA
ATOM     13  C   UNL     1      -9.267  10.182  63.947  0.00  0.00    +0.101 A 
ATOM     14  C   UNL     1      -9.309  11.092  62.925  0.00  0.00    +0.101 A 
ATOM     15  C   UNL     1      -8.644  10.782  61.746  0.00  0.00    +0.021 A 
ATOM     16  C   UNL     1      -7.927   9.613  61.606  0.00  0.00    +0.002 A 
ATOM     17  C   UNL     1      -8.067   8.672  62.601  0.00  0.00    +0.002 A 
ATOM     18  C   UNL     1      -8.707   8.927  63.793  0.00  0.00    +0.021 A 
ATOM     19  N   UNL     1     -10.212  12.039  63.265  0.00  0.00    -0.218 NA
ENDBRANCH   9  11
ENDBRANCH   8   9
ENDBRANCH   3   8
BRANCH   7  20
ATOM     20  O   UNL     1     -11.993  14.140  71.099  0.00  0.00    -0.467 OA
BRANCH  20  21
ATOM     21  C   UNL     1     -13.070  14.256  71.994  0.00  0.00    +0.308 C 
BRANCH  21  22
ATOM     22  C   UNL     1     -12.985  15.490  72.855  0.00  0.00    +0.438 C 
ATOM     23  F   UNL     1     -14.223  16.105  72.935  0.00  0.00    -0.166 F 
ATOM     24  F   UNL     1     -12.038  16.386  72.423  0.00  0.00    -0.166 F 
ATOM     25  F   UNL     1     -12.624  15.085  74.126  0.00  0.00    -0.166 F 
ENDBRANCH  21  22
ENDBRANCH  20  21
ENDBRANCH   7  20
TORSDOF 6
ENDMDL
MODEL 6
REMARK VINA RESULT:      -6.6      4.750      5.589
REMARK  Name = 
REMARK  6 active torsions:
REMARK  status: ('A' for Active; 'I' for Inactive)
REMARK    1  A    between atoms: C_3  and  O_4
REMARK    2  A    between atoms: O_4  and  C_5
REMARK    3  A    between atoms: C_5  and  C_6
REMARK    4  A    between atoms: C_13  and  C_14
REMARK    5  A    between atoms: C_14  and  S_15
REMARK    6  A    between atoms: S_15  and  C_17
REMARK                            x       y       z     vdW  Elec       q    Type
REMARK                         _______ _______ _______ _____ _____    ______ ____
ROOT
ATOM      1  C   UNL     1     -11.748  11.177  68.490  0.00  0.00    +0.035 C 
ATOM      2  C   UNL     1     -11.096  10.825  67.327  0.00  0.00    +0.027 A 
ATOM      3  C   UNL     1     -10.875  11.819  66.384  0.00  0.00    +0.072 A 
ATOM      4  N   UNL     1     -10.346  11.500  65.182  0.00  0.00    -0.247 NA
ATOM      5  C   UNL     1     -10.065  10.212  64.908  0.00  0.00    +0.102 A 
ATOM      6  C   UNL     1      -9.840   9.341  65.949  0.00  0.00    +0.057 A 
ATOM      7  C   UNL     1     -10.453   9.608  67.149  0.00  0.00    +0.138 A 
ENDROOT
BRANCH   3   8
ATOM      8  C   UNL     1     -11.540  13.141  66.561  0.00  0.00    +0.145 C 
BRANCH   8   9
ATOM      9  S   UNL     1     -11.298  14.112  65.013  0.00  0.00    +0.107 S 
ATOM     10  O   UNL     1     -12.776  14.508  64.719  0.00  0.00    -0.248 OA
BRANCH   9  11
ATOM     11  C   UNL     1     -10.630  15.645  65.703  0.00  0.00    +0.221 A 
ATOM     12  N   UNL     1     -10.535  16.843  65.144  0.00  0.00    -0.218 NA
ATOM     13  C   UNL     1     -10.256  17.763  66.093  0.00  0.00    +0.101 A 
ATOM     14  C   UNL     1     -10.079  17.077  67.264  0.00  0.00    +0.101 A 
ATOM     15  C   UNL     1      -9.951  17.808  68.438  0.00  0.00    +0.021 A 
ATOM     16  C   UNL     1      -9.964  19.187  68.435  0.00  0.00    +0.002 A 
ATOM     17  C   UNL     1     -10.315  19.806  67.258  0.00  0.00    +0.002 A 
ATOM     18  C   UNL     1     -10.445  19.133  66.064  0.00  0.00    +0.021 A 
ATOM     19  N   UNL     1     -10.286  15.767  67.000  0.00  0.00    -0.218 NA
ENDBRANCH   9  11
ENDBRANCH   8   9
ENDBRANCH   3   8
BRANCH   7  20
ATOM     20  O   UNL     1     -10.474   8.737  68.221  0.00  0.00    -0.467 OA
BRANCH  20  21
ATOM     21  C   UNL     1      -9.866   7.471  68.237  0.00  0.00    +0.308 C 
BRANCH  21  22
ATOM     22  C   UNL     1     -10.858   6.344  68.104  0.00  0.00    +0.438 C 
ATOM     23  F   UNL     1     -11.535   6.441  66.900  0.00  0.00    -0.166 F 
ATOM     24  F   UNL     1     -11.751   6.284  69.145  0.00  0.00    -0.166 F 
ATOM     25  F   UNL     1     -10.145   5.161  68.101  0.00  0.00    -0.166 F 
ENDBRANCH  21  22
ENDBRANCH  20  21
ENDBRANCH   7  20
TORSDOF 6
ENDMDL
MODEL 7
REMARK VINA RESULT:      -6.5      3.611      7.035
REMARK  Name = 
REMARK  6 active torsions:
REMARK  status: ('A' for Active; 'I' for Inactive)
REMARK    1  A    between atoms: C_3  and  O_4
REMARK    2  A    between atoms: O_4  and  C_5
REMARK    3  A    between atoms: C_5  and  C_6
REMARK    4  A    between atoms: C_13  and  C_14
REMARK    5  A    between atoms: C_14  and  S_15
REMARK    6  A    between atoms: S_15  and  C_17
REMARK                            x       y       z     vdW  Elec       q    Type
REMARK                         _______ _______ _______ _____ _____    ______ ____
ROOT
ATOM      1  C   UNL     1      -6.908  16.903  66.956  0.00  0.00    +0.035 C 
ATOM      2  C   UNL     1      -8.039  17.665  66.752  0.00  0.00    +0.027 A 
ATOM      3  C   UNL     1      -9.271  17.035  66.860  0.00  0.00    +0.072 A 
ATOM      4  N   UNL     1     -10.401  17.712  66.556  0.00  0.00    -0.247 NA
ATOM      5  C   UNL     1     -10.310  18.985  66.125  0.00  0.00    +0.102 A 
ATOM      6  C   UNL     1      -9.201  19.725  66.460  0.00  0.00    +0.057 A 
ATOM      7  C   UNL     1      -8.024  19.052  66.678  0.00  0.00    +0.138 A 
ENDROOT
BRANCH   3   8
ATOM      8  C   UNL     1      -9.315  15.549  66.958  0.00  0.00    +0.145 C 
BRANCH   8   9
ATOM      9  S   UNL     1     -11.083  15.034  67.016  0.00  0.00    +0.107 S 
ATOM     10  O   UNL     1     -10.933  13.538  66.606  0.00  0.00    -0.248 OA
BRANCH   9  11
ATOM     11  C   UNL     1     -11.319  14.909  68.805  0.00  0.00    +0.221 A 
ATOM     12  N   UNL     1     -10.992  15.773  69.756  0.00  0.00    -0.218 NA
ATOM     13  C   UNL     1     -11.604  15.429  70.909  0.00  0.00    +0.101 A 
ATOM     14  C   UNL     1     -12.255  14.248  70.671  0.00  0.00    +0.101 A 
ATOM     15  C   UNL     1     -13.111  13.763  71.650  0.00  0.00    +0.021 A 
ATOM     16  C   UNL     1     -13.283  14.422  72.850  0.00  0.00    +0.002 A 
ATOM     17  C   UNL     1     -12.737  15.680  72.956  0.00  0.00    +0.002 A 
ATOM     18  C   UNL     1     -11.875  16.207  72.020  0.00  0.00    +0.021 A 
ATOM     19  N   UNL     1     -12.045  13.927  69.374  0.00  0.00    -0.218 NA
ENDBRANCH   9  11
ENDBRANCH   8   9
ENDBRANCH   3   8
BRANCH   7  20
ATOM     20  O   UNL     1      -6.795  19.663  66.837  0.00  0.00    -0.467 OA
BRANCH  20  21
ATOM     21  C   UNL     1      -6.531  20.703  67.744  0.00  0.00    +0.308 C 
BRANCH  21  22
ATOM     22  C   UNL     1      -5.911  20.215  69.028  0.00  0.00    +0.438 C 
ATOM     23  F   UNL     1      -6.807  19.417  69.720  0.00  0.00    -0.166 F 
ATOM     24  F   UNL     1      -5.463  21.232  69.834  0.00  0.00    -0.166 F 
ATOM     25  F   UNL     1      -4.818  19.439  68.692  0.00  0.00    -0.166 F 
ENDBRANCH  21  22
ENDBRANCH  20  21
ENDBRANCH   7  20
TORSDOF 6
ENDMDL
MODEL 8
REMARK VINA RESULT:      -6.4      3.331      7.462
REMARK  Name = 
REMARK  6 active torsions:
REMARK  status: ('A' for Active; 'I' for Inactive)
REMARK    1  A    between atoms: C_3  and  O_4
REMARK    2  A    between atoms: O_4  and  C_5
REMARK    3  A    between atoms: C_5  and  C_6
REMARK    4  A    between atoms: C_13  and  C_14
REMARK    5  A    between atoms: C_14  and  S_15
REMARK    6  A    between atoms: S_15  and  C_17
REMARK                            x       y       z     vdW  Elec       q    Type
REMARK                         _______ _______ _______ _____ _____    ______ ____
ROOT
ATOM      1  C   UNL     1      -9.826  15.915  68.067  0.00  0.00    +0.035 C 
ATOM      2  C   UNL     1     -10.533  15.584  66.930  0.00  0.00    +0.027 A 
ATOM      3  C   UNL     1     -11.454  14.550  67.020  0.00  0.00    +0.072 A 
ATOM      4  N   UNL     1     -12.086  14.114  65.907  0.00  0.00    -0.247 NA
ATOM      5  C   UNL     1     -11.790  14.676  64.720  0.00  0.00    +0.102 A 
ATOM      6  C   UNL     1     -11.272  15.950  64.694  0.00  0.00    +0.057 A 
ATOM      7  C   UNL     1     -10.547  16.367  65.783  0.00  0.00    +0.138 A 
ENDROOT
BRANCH   3   8
ATOM      8  C   UNL     1     -11.472  13.705  68.247  0.00  0.00    +0.145 C 
BRANCH   8   9
ATOM      9  S   UNL     1     -11.062  11.977  67.756  0.00  0.00    +0.107 S 
ATOM     10  O   UNL     1      -9.512  12.097  67.650  0.00  0.00    -0.248 OA
BRANCH   9  11
ATOM     11  C   UNL     1     -11.264  11.139  69.346  0.00  0.00    +0.221 A 
ATOM     12  N   UNL     1     -12.321  11.099  70.144  0.00  0.00    -0.218 NA
ATOM     13  C   UNL     1     -12.152  10.132  71.071  0.00  0.00    +0.101 A 
ATOM     14  C   UNL     1     -10.893   9.627  70.885  0.00  0.00    +0.101 A 
ATOM     15  C   UNL     1     -10.531   8.494  71.601  0.00  0.00    +0.021 A 
ATOM     16  C   UNL     1     -11.390   7.904  72.505  0.00  0.00    +0.002 A 
ATOM     17  C   UNL     1     -12.689   8.356  72.517  0.00  0.00    +0.002 A 
ATOM     18  C   UNL     1     -13.102   9.478  71.834  0.00  0.00    +0.021 A 
ATOM     19  N   UNL     1     -10.348  10.279  69.834  0.00  0.00    -0.218 NA
ENDBRANCH   9  11
ENDBRANCH   8   9
ENDBRANCH   3   8
BRANCH   7  20
ATOM     20  O   UNL     1      -9.814  17.537  65.828  0.00  0.00    -0.467 OA
BRANCH  20  21
ATOM     21  C   UNL     1     -10.362  18.817  66.017  0.00  0.00    +0.308 C 
BRANCH  21  22
ATOM     22  C   UNL     1      -9.840  19.499  67.255  0.00  0.00    +0.438 C 
ATOM     23  F   UNL     1     -10.531  19.060  68.372  0.00  0.00    -0.166 F 
ATOM     24  F   UNL     1      -9.885  20.869  67.179  0.00  0.00    -0.166 F 
ATOM     25  F   UNL     1      -8.515  19.136  67.401  0.00  0.00    -0.166 F 
ENDBRANCH  21  22
ENDBRANCH  20  21
ENDBRANCH   7  20
TORSDOF 6
ENDMDL
MODEL 9
REMARK VINA RESULT:      -6.4      4.536      5.836
REMARK  Name = 
REMARK  6 active torsions:
REMARK  status: ('A' for Active; 'I' for Inactive)
REMARK    1  A    between atoms: C_3  and  O_4
REMARK    2  A    between atoms: O_4  and  C_5
REMARK    3  A    between atoms: C_5  and  C_6
REMARK    4  A    between atoms: C_13  and  C_14
REMARK    5  A    between atoms: C_14  and  S_15
REMARK    6  A    between atoms: S_15  and  C_17
REMARK                            x       y       z     vdW  Elec       q    Type
REMARK                         _______ _______ _______ _____ _____    ______ ____
ROOT
ATOM      1  C   UNL     1      -9.092  15.124  66.502  0.00  0.00    +0.035 C 
ATOM      2  C   UNL     1     -10.147  15.120  67.391  0.00  0.00    +0.027 A 
ATOM      3  C   UNL     1     -10.427  16.300  68.065  0.00  0.00    +0.072 A 
ATOM      4  N   UNL     1     -11.375  16.314  69.029  0.00  0.00    -0.247 NA
ATOM      5  C   UNL     1     -12.017  15.171  69.338  0.00  0.00    +0.102 A 
ATOM      6  C   UNL     1     -12.086  14.169  68.398  0.00  0.00    +0.057 A 
ATOM      7  C   UNL     1     -11.075  14.090  67.472  0.00  0.00    +0.138 A 
ENDROOT
BRANCH   3   8
ATOM      8  C   UNL     1      -9.457  17.427  67.981  0.00  0.00    +0.145 C 
BRANCH   8   9
ATOM      9  S   UNL     1     -10.058  18.601  66.694  0.00  0.00    +0.107 S 
ATOM     10  O   UNL     1     -10.941  19.530  67.581  0.00  0.00    -0.248 OA
BRANCH   9  11
ATOM     11  C   UNL     1      -8.573  19.607  66.464  0.00  0.00    +0.221 A 
ATOM     12  N   UNL     1      -7.995  20.455  67.304  0.00  0.00    -0.218 NA
ATOM     13  C   UNL     1      -6.759  20.764  66.856  0.00  0.00    +0.101 A 
ATOM     14  C   UNL     1      -6.618  20.151  65.640  0.00  0.00    +0.101 A 
ATOM     15  C   UNL     1      -5.366  20.167  65.041  0.00  0.00    +0.021 A 
ATOM     16  C   UNL     1      -4.294  20.809  65.624  0.00  0.00    +0.002 A 
ATOM     17  C   UNL     1      -4.460  21.254  66.915  0.00  0.00    +0.002 A 
ATOM     18  C   UNL     1      -5.679  21.270  67.555  0.00  0.00    +0.021 A 
ATOM     19  N   UNL     1      -7.757  19.464  65.400  0.00  0.00    -0.218 NA
ENDBRANCH   9  11
ENDBRANCH   8   9
ENDBRANCH   3   8
BRANCH   7  20
ATOM     20  O   UNL     1     -10.907  13.040  66.591  0.00  0.00    -0.467 OA
BRANCH  20  21
ATOM     21  C   UNL     1     -11.886  12.589  65.689  0.00  0.00    +0.308 C 
BRANCH  21  22
ATOM     22  C   UNL     1     -11.758  13.218  64.325  0.00  0.00    +0.438 C 
ATOM     23  F   UNL     1     -10.425  13.292  63.955  0.00  0.00    -0.166 F 
ATOM     24  F   UNL     1     -12.342  14.458  64.244  0.00  0.00    -0.166 F 
ATOM     25  F   UNL     1     -12.407  12.394  63.425  0.00  0.00    -0.166 F 
ENDBRANCH  21  22
ENDBRANCH  20  21
ENDBRANCH   7  20
TORSDOF 6
ENDMDL
