MODEL 1
REMARK VINA RESULT:      -6.1      0.000      0.000
REMARK  Name = 
REMARK  1 active torsions:
REMARK  status: ('A' for Active; 'I' for Inactive)
REMARK    1  A    between atoms: C_5  and  C_6
REMARK                            x       y       z     vdW  Elec       q    Type
REMARK                         _______ _______ _______ _____ _____    ______ ____
ROOT
ATOM      1  C   UNL     1     -10.588  17.087  68.646  0.00  0.00    -0.001 C 
ATOM      2  C   UNL     1     -10.801  15.993  67.913  0.00  0.00    +0.012 C 
ATOM      3  C   UNL     1     -10.424  14.543  68.542  0.00  0.00    +0.026 C 
ATOM      4  C   UNL     1      -9.753  13.968  67.144  0.00  0.00    +0.010 C 
ATOM      5  C   UNL     1     -10.739  14.510  66.168  0.00  0.00    +0.055 C 
ATOM      6  C   UNL     1     -12.020  14.052  66.747  0.00  0.00    +0.008 C 
ATOM      7  C   UNL     1     -10.427  14.122  64.793  0.00  0.00    +0.008 C 
ATOM      8  C   UNL     1      -9.731  12.486  67.273  0.00  0.00    +0.001 C 
ATOM      9  C   UNL     1      -8.408  14.622  67.097  0.00  0.00    +0.001 C 
ATOM     10  C   UNL     1     -11.909  13.903  68.201  0.00  0.00    +0.005 C 
ATOM     11  C   UNL     1     -10.545  15.930  66.516  0.00  0.00    +0.168 C 
ATOM     12  O   UNL     1      -9.856  16.716  65.831  0.00  0.00    -0.292 OA
ENDROOT
BRANCH   1  17
ATOM     13  C   UNL     1      -7.192  19.895  65.511  0.00  0.00    +0.031 C 
ATOM     14  C   UNL     1      -7.891  19.601  66.767  0.00  0.00    -0.022 A 
ATOM     15  C   UNL     1      -9.112  20.172  67.107  0.00  0.00    -0.004 A 
ATOM     16  C   UNL     1     -10.048  19.368  67.754  0.00  0.00    -0.000 A 
ATOM     17  C   UNL     1      -9.658  18.141  68.280  0.00  0.00    -0.000 A 
ATOM     18  C   UNL     1      -8.292  18.050  68.532  0.00  0.00    -0.000 A 
ATOM     19  C   UNL     1      -7.388  18.713  67.710  0.00  0.00    -0.004 A 
ENDBRANCH   1  17
TORSDOF 1
ENDMDL
MODEL 2
REMARK VINA RESULT:      -5.8      1.624      5.515
REMARK  Name = 
REMARK  1 active torsions:
REMARK  status: ('A' for Active; 'I' for Inactive)
REMARK    1  A    between atoms: C_5  and  C_6
REMARK                            x       y       z     vdW  Elec       q    Type
REMARK                         _______ _______ _______ _____ _____    ______ ____
ROOT
ATOM      1  C   UNL     1     -11.414  14.779  67.999  0.00  0.00    -0.001 C 
ATOM      2  C   UNL     1     -10.474  15.716  67.865  0.00  0.00    +0.012 C 
ATOM      3  C   UNL     1     -10.923  17.277  67.829  0.00  0.00    +0.026 C 
ATOM      4  C   UNL     1      -9.893  17.679  66.599  0.00  0.00    +0.010 C 
ATOM      5  C   UNL     1      -8.699  16.897  67.027  0.00  0.00    +0.055 C 
ATOM      6  C   UNL     1      -8.548  17.321  68.435  0.00  0.00    +0.008 C 
ATOM      7  C   UNL     1      -7.563  17.085  66.125  0.00  0.00    +0.008 C 
ATOM      8  C   UNL     1      -9.740  19.158  66.652  0.00  0.00    +0.001 C 
ATOM      9  C   UNL     1     -10.574  17.153  65.376  0.00  0.00    +0.001 C 
ATOM     10  C   UNL     1      -9.842  17.714  69.001  0.00  0.00    +0.005 C 
ATOM     11  C   UNL     1      -9.354  15.576  67.000  0.00  0.00    +0.168 C 
ATOM     12  O   UNL     1      -9.209  14.757  66.067  0.00  0.00    -0.292 OA
ENDROOT
BRANCH   1  17
ATOM     13  C   UNL     1     -10.695  11.809  63.538  0.00  0.00    +0.031 C 
ATOM     14  C   UNL     1     -11.434  12.246  64.727  0.00  0.00    -0.022 A 
ATOM     15  C   UNL     1     -11.311  11.630  65.967  0.00  0.00    -0.004 A 
ATOM     16  C   UNL     1     -11.313  12.440  67.100  0.00  0.00    -0.000 A 
ATOM     17  C   UNL     1     -11.705  13.770  66.996  0.00  0.00    -0.000 A 
ATOM     18  C   UNL     1     -12.505  14.032  65.888  0.00  0.00    -0.000 A 
ATOM     19  C   UNL     1     -12.308  13.327  64.706  0.00  0.00    -0.004 A 
ENDBRANCH   1  17
TORSDOF 1
ENDMDL
MODEL 3
REMARK VINA RESULT:      -5.8      2.973      5.174
REMARK  Name = 
REMARK  1 active torsions:
REMARK  status: ('A' for Active; 'I' for Inactive)
REMARK    1  A    between atoms: C_5  and  C_6
REMARK                            x       y       z     vdW  Elec       q    Type
REMARK                         _______ _______ _______ _____ _____    ______ ____
ROOT
ATOM      1  C   UNL     1     -12.063  13.846  69.693  0.00  0.00    -0.001 C 
ATOM      2  C   UNL     1     -11.445  14.204  68.566  0.00  0.00    +0.012 C 
ATOM      3  C   UNL     1      -9.977  13.588  68.248  0.00  0.00    +0.026 C 
ATOM      4  C   UNL     1      -9.352  15.020  67.705  0.00  0.00    +0.010 C 
ATOM      5  C   UNL     1     -10.522  15.506  66.922  0.00  0.00    +0.055 C 
ATOM      6  C   UNL     1     -10.827  14.335  66.074  0.00  0.00    +0.008 C 
ATOM      7  C   UNL     1     -10.255  16.784  66.263  0.00  0.00    +0.008 C 
ATOM      8  C   UNL     1      -8.149  14.670  66.902  0.00  0.00    +0.001 C 
ATOM      9  C   UNL     1      -9.078  15.790  68.958  0.00  0.00    +0.001 C 
ATOM     10  C   UNL     1     -10.407  13.094  66.731  0.00  0.00    +0.005 C 
ATOM     11  C   UNL     1     -11.471  15.529  68.051  0.00  0.00    +0.168 C 
ATOM     12  O   UNL     1     -11.794  16.575  68.655  0.00  0.00    -0.292 OA
ENDROOT
BRANCH   1  17
ATOM     13  C   UNL     1     -12.592  15.657  74.761  0.00  0.00    +0.031 C 
ATOM     14  C   UNL     1     -12.741  15.749  73.305  0.00  0.00    -0.022 A 
ATOM     15  C   UNL     1     -11.790  16.340  72.481  0.00  0.00    -0.004 A 
ATOM     16  C   UNL     1     -11.537  15.743  71.248  0.00  0.00    -0.000 A 
ATOM     17  C   UNL     1     -12.403  14.770  70.761  0.00  0.00    -0.000 A 
ATOM     18  C   UNL     1     -13.679  14.830  71.315  0.00  0.00    -0.000 A 
ATOM     19  C   UNL     1     -13.845  15.236  72.634  0.00  0.00    -0.004 A 
ENDBRANCH   1  17
TORSDOF 1
ENDMDL
MODEL 4
REMARK VINA RESULT:      -5.6      1.252      5.564
REMARK  Name = 
REMARK  1 active torsions:
REMARK  status: ('A' for Active; 'I' for Inactive)
REMARK    1  A    between atoms: C_5  and  C_6
REMARK                            x       y       z     vdW  Elec       q    Type
REMARK                         _______ _______ _______ _____ _____    ______ ____
ROOT
ATOM      1  C   UNL     1      -9.812  16.385  65.818  0.00  0.00    -0.001 C 
ATOM      2  C   UNL     1      -9.608  17.537  66.462  0.00  0.00    +0.012 C 
ATOM      3  C   UNL     1      -8.103  18.144  66.523  0.00  0.00    +0.026 C 
ATOM      4  C   UNL     1      -8.208  18.586  68.114  0.00  0.00    +0.010 C 
ATOM      5  C   UNL     1      -9.599  19.117  68.121  0.00  0.00    +0.055 C 
ATOM      6  C   UNL     1      -9.570  20.055  66.978  0.00  0.00    +0.008 C 
ATOM      7  C   UNL     1      -9.986  19.639  69.431  0.00  0.00    +0.008 C 
ATOM      8  C   UNL     1      -7.138  19.596  68.336  0.00  0.00    +0.001 C 
ATOM      9  C   UNL     1      -8.030  17.299  68.855  0.00  0.00    +0.001 C 
ATOM     10  C   UNL     1      -8.580  19.632  65.984  0.00  0.00    +0.005 C 
ATOM     11  C   UNL     1     -10.250  17.867  67.687  0.00  0.00    +0.168 C 
ATOM     12  O   UNL     1     -10.840  17.093  68.472  0.00  0.00    -0.292 OA
ENDROOT
BRANCH   1  17
ATOM     13  C   UNL     1     -11.911  13.269  69.707  0.00  0.00    +0.031 C 
ATOM     14  C   UNL     1     -11.303  13.511  68.395  0.00  0.00    -0.022 A 
ATOM     15  C   UNL     1     -12.048  13.734  67.243  0.00  0.00    -0.004 A 
ATOM     16  C   UNL     1     -11.579  14.683  66.338  0.00  0.00    -0.000 A 
ATOM     17  C   UNL     1     -10.282  15.169  66.458  0.00  0.00    -0.000 A 
ATOM     18  C   UNL     1      -9.431  14.322  67.162  0.00  0.00    -0.000 A 
ATOM     19  C   UNL     1      -9.927  13.550  68.206  0.00  0.00    -0.004 A 
ENDBRANCH   1  17
TORSDOF 1
ENDMDL
MODEL 5
REMARK VINA RESULT:      -5.5      3.564      7.297
REMARK  Name = 
REMARK  1 active torsions:
REMARK  status: ('A' for Active; 'I' for Inactive)
REMARK    1  A    between atoms: C_5  and  C_6
REMARK                            x       y       z     vdW  Elec       q    Type
REMARK                         _______ _______ _______ _____ _____    ______ ____
ROOT
ATOM      1  C   UNL     1     -11.682  10.699  68.140  0.00  0.00    -0.001 C 
ATOM      2  C   UNL     1     -11.652  11.951  67.676  0.00  0.00    +0.012 C 
ATOM      3  C   UNL     1     -10.600  12.325  66.497  0.00  0.00    +0.026 C 
ATOM      4  C   UNL     1     -10.161  13.771  67.171  0.00  0.00    +0.010 C 
ATOM      5  C   UNL     1     -11.503  14.237  67.623  0.00  0.00    +0.055 C 
ATOM      6  C   UNL     1     -12.308  14.080  66.393  0.00  0.00    +0.008 C 
ATOM      7  C   UNL     1     -11.448  15.558  68.248  0.00  0.00    +0.008 C 
ATOM      8  C   UNL     1      -9.545  14.569  66.076  0.00  0.00    +0.001 C 
ATOM      9  C   UNL     1      -9.232  13.384  68.276  0.00  0.00    +0.001 C 
ATOM     10  C   UNL     1     -11.763  13.014  65.547  0.00  0.00    +0.005 C 
ATOM     11  C   UNL     1     -11.776  13.093  68.514  0.00  0.00    +0.168 C 
ATOM     12  O   UNL     1     -11.648  13.146  69.756  0.00  0.00    -0.292 OA
ENDROOT
BRANCH   1  17
ATOM     13  C   UNL     1     -11.029   7.474  72.430  0.00  0.00    +0.031 C 
ATOM     14  C   UNL     1     -11.037   8.769  71.743  0.00  0.00    -0.022 A 
ATOM     15  C   UNL     1      -9.910   9.316  71.141  0.00  0.00    -0.004 A 
ATOM     16  C   UNL     1     -10.079   9.988  69.932  0.00  0.00    -0.000 A 
ATOM     17  C   UNL     1     -11.357  10.331  69.506  0.00  0.00    -0.000 A 
ATOM     18  C   UNL     1     -12.289  10.401  70.538  0.00  0.00    -0.000 A 
ATOM     19  C   UNL     1     -12.184   9.546  71.628  0.00  0.00    -0.004 A 
ENDBRANCH   1  17
TORSDOF 1
ENDMDL
MODEL 6
REMARK VINA RESULT:      -5.5      1.407      5.665
REMARK  Name = 
REMARK  1 active torsions:
REMARK  status: ('A' for Active; 'I' for Inactive)
REMARK    1  A    between atoms: C_5  and  C_6
REMARK                            x       y       z     vdW  Elec       q    Type
REMARK                         _______ _______ _______ _____ _____    ______ ____
ROOT
ATOM      1  C   UNL     1     -11.044  16.074  67.488  0.00  0.00    -0.001 C 
ATOM      2  C   UNL     1     -10.317  17.178  67.671  0.00  0.00    +0.012 C 
ATOM      3  C   UNL     1     -10.059  18.165  66.407  0.00  0.00    +0.026 C 
ATOM      4  C   UNL     1      -8.466  18.423  66.768  0.00  0.00    +0.010 C 
ATOM      5  C   UNL     1      -8.578  18.554  68.248  0.00  0.00    +0.055 C 
ATOM      6  C   UNL     1      -9.655  19.557  68.383  0.00  0.00    +0.008 C 
ATOM      7  C   UNL     1      -7.288  18.837  68.878  0.00  0.00    +0.008 C 
ATOM      8  C   UNL     1      -8.073  19.664  66.047  0.00  0.00    +0.001 C 
ATOM      9  C   UNL     1      -7.786  17.175  66.303  0.00  0.00    +0.001 C 
ATOM     10  C   UNL     1     -10.560  19.507  67.231  0.00  0.00    +0.005 C 
ATOM     11  C   UNL     1      -9.150  17.215  68.484  0.00  0.00    +0.168 C 
ATOM     12  O   UNL     1      -8.479  16.245  68.899  0.00  0.00    -0.292 OA
ENDROOT
BRANCH   1  17
ATOM     13  C   UNL     1     -10.937  10.680  67.112  0.00  0.00    +0.031 C 
ATOM     14  C   UNL     1     -10.417  11.983  67.538  0.00  0.00    -0.022 A 
ATOM     15  C   UNL     1      -9.513  12.724  66.783  0.00  0.00    -0.004 A 
ATOM     16  C   UNL     1      -9.676  14.107  66.747  0.00  0.00    -0.000 A 
ATOM     17  C   UNL     1     -10.530  14.725  67.653  0.00  0.00    -0.000 A 
ATOM     18  C   UNL     1     -10.764  13.975  68.801  0.00  0.00    -0.000 A 
ATOM     19  C   UNL     1     -10.802  12.587  68.729  0.00  0.00    -0.004 A 
ENDBRANCH   1  17
TORSDOF 1
ENDMDL
MODEL 7
REMARK VINA RESULT:      -5.4      2.174      5.650
REMARK  Name = 
REMARK  1 active torsions:
REMARK  status: ('A' for Active; 'I' for Inactive)
REMARK    1  A    between atoms: C_5  and  C_6
REMARK                            x       y       z     vdW  Elec       q    Type
REMARK                         _______ _______ _______ _____ _____    ______ ____
ROOT
ATOM      1  C   UNL     1      -9.392  15.570  69.042  0.00  0.00    -0.001 C 
ATOM      2  C   UNL     1      -9.035  16.553  68.212  0.00  0.00    +0.012 C 
ATOM      3  C   UNL     1      -7.830  17.549  68.650  0.00  0.00    +0.026 C 
ATOM      4  C   UNL     1      -8.595  18.917  68.120  0.00  0.00    +0.010 C 
ATOM      5  C   UNL     1      -9.166  18.390  66.849  0.00  0.00    +0.055 C 
ATOM      6  C   UNL     1      -7.979  17.779  66.214  0.00  0.00    +0.008 C 
ATOM      7  C   UNL     1      -9.896  19.415  66.104  0.00  0.00    +0.008 C 
ATOM      8  C   UNL     1      -7.536  19.950  67.963  0.00  0.00    +0.001 C 
ATOM      9  C   UNL     1      -9.605  19.198  69.186  0.00  0.00    +0.001 C 
ATOM     10  C   UNL     1      -7.014  17.343  67.228  0.00  0.00    +0.005 C 
ATOM     11  C   UNL     1      -9.972  17.321  67.467  0.00  0.00    +0.168 C 
ATOM     12  O   UNL     1     -11.205  17.413  67.657  0.00  0.00    -0.292 OA
ENDROOT
BRANCH   1  17
ATOM     13  C   UNL     1     -13.152  13.851  72.527  0.00  0.00    +0.031 C 
ATOM     14  C   UNL     1     -12.678  14.616  71.369  0.00  0.00    -0.022 A 
ATOM     15  C   UNL     1     -12.236  15.931  71.458  0.00  0.00    -0.004 A 
ATOM     16  C   UNL     1     -11.141  16.304  70.683  0.00  0.00    -0.000 A 
ATOM     17  C   UNL     1     -10.700  15.467  69.663  0.00  0.00    -0.000 A 
ATOM     18  C   UNL     1     -11.674  14.582  69.208  0.00  0.00    -0.000 A 
ATOM     19  C   UNL     1     -12.620  14.075  70.090  0.00  0.00    -0.004 A 
ENDBRANCH   1  17
TORSDOF 1
ENDMDL
MODEL 8
REMARK VINA RESULT:      -5.4      3.377      6.912
REMARK  Name = 
REMARK  1 active torsions:
REMARK  status: ('A' for Active; 'I' for Inactive)
REMARK    1  A    between atoms: C_5  and  C_6
REMARK                            x       y       z     vdW  Elec       q    Type
REMARK                         _______ _______ _______ _____ _____    ______ ____
ROOT
ATOM      1  C   UNL     1     -10.561  10.681  65.183  0.00  0.00    -0.001 C 
ATOM      2  C   UNL     1     -11.089  11.882  65.430  0.00  0.00    +0.012 C 
ATOM      3  C   UNL     1     -10.544  13.164  64.597  0.00  0.00    +0.026 C 
ATOM      4  C   UNL     1     -10.509  14.168  65.912  0.00  0.00    +0.010 C 
ATOM      5  C   UNL     1     -11.784  13.751  66.560  0.00  0.00    +0.055 C 
ATOM      6  C   UNL     1     -12.741  13.852  65.438  0.00  0.00    +0.008 C 
ATOM      7  C   UNL     1     -12.062  14.515  67.775  0.00  0.00    +0.008 C 
ATOM      8  C   UNL     1     -10.490  15.555  65.375  0.00  0.00    +0.001 C 
ATOM      9  C   UNL     1      -9.274  13.753  66.646  0.00  0.00    +0.001 C 
ATOM     10  C   UNL     1     -12.063  13.644  64.155  0.00  0.00    +0.005 C 
ATOM     11  C   UNL     1     -11.417  12.333  66.739  0.00  0.00    +0.168 C 
ATOM     12  O   UNL     1     -11.032  11.857  67.828  0.00  0.00    -0.292 OA
ENDROOT
BRANCH   1  17
ATOM     13  C   UNL     1      -8.644   9.266  70.037  0.00  0.00    +0.031 C 
ATOM     14  C   UNL     1      -8.772   9.140  68.582  0.00  0.00    -0.022 A 
ATOM     15  C   UNL     1      -9.715   8.321  67.971  0.00  0.00    -0.004 A 
ATOM     16  C   UNL     1     -10.334   8.791  66.815  0.00  0.00    -0.000 A 
ATOM     17  C   UNL     1      -9.819   9.904  66.160  0.00  0.00    -0.000 A 
ATOM     18  C   UNL     1      -8.478  10.146  66.441  0.00  0.00    -0.000 A 
ATOM     19  C   UNL     1      -7.966   9.847  67.698  0.00  0.00    -0.004 A 
ENDBRANCH   1  17
TORSDOF 1
ENDMDL
MODEL 9
REMARK VINA RESULT:      -5.4      3.476      7.317
REMARK  Name = 
REMARK  1 active torsions:
REMARK  status: ('A' for Active; 'I' for Inactive)
REMARK    1  A    between atoms: C_5  and  C_6
REMARK                            x       y       z     vdW  Elec       q    Type
REMARK                         _______ _______ _______ _____ _____    ______ ____
ROOT
ATOM      1  C   UNL     1      -9.546  11.253  68.758  0.00  0.00    -0.001 C 
ATOM      2  C   UNL     1      -9.919  12.212  67.907  0.00  0.00    +0.012 C 
ATOM      3  C   UNL     1      -9.621  13.761  68.293  0.00  0.00    +0.026 C 
ATOM      4  C   UNL     1     -11.096  14.307  67.778  0.00  0.00    +0.010 C 
ATOM      5  C   UNL     1     -11.224  13.499  66.533  0.00  0.00    +0.055 C 
ATOM      6  C   UNL     1      -9.935  13.769  65.862  0.00  0.00    +0.008 C 
ATOM      7  C   UNL     1     -12.456  13.797  65.804  0.00  0.00    +0.008 C 
ATOM      8  C   UNL     1     -10.947  15.773  67.574  0.00  0.00    +0.001 C 
ATOM      9  C   UNL     1     -12.029  13.909  68.877  0.00  0.00    +0.001 C 
ATOM     10  C   UNL     1      -8.893  14.082  66.845  0.00  0.00    +0.005 C 
ATOM     11  C   UNL     1     -11.146  12.180  67.189  0.00  0.00    +0.168 C 
ATOM     12  O   UNL     1     -12.147  11.469  67.421  0.00  0.00    -0.292 OA
ENDROOT
BRANCH   1  17
ATOM     13  C   UNL     1     -11.361   7.864  72.561  0.00  0.00    +0.031 C 
ATOM     14  C   UNL     1     -11.453   8.596  71.294  0.00  0.00    -0.022 A 
ATOM     15  C   UNL     1     -12.039   9.852  71.183  0.00  0.00    -0.004 A 
ATOM     16  C   UNL     1     -11.441  10.777  70.331  0.00  0.00    -0.000 A 
ATOM     17  C   UNL     1     -10.472  10.356  69.427  0.00  0.00    -0.000 A 
ATOM     18  C   UNL     1     -10.538   8.998  69.130  0.00  0.00    -0.000 A 
ATOM     19  C   UNL     1     -10.945   8.092  70.103  0.00  0.00    -0.004 A 
ENDBRANCH   1  17
TORSDOF 1
ENDMDL
