MODEL 1
REMARK VINA RESULT:      -7.6      0.000      0.000
REMARK  Name = 
REMARK  12 active torsions:
REMARK  status: ('A' for Active; 'I' for Inactive)
REMARK    1  A    between atoms: C_2  and  C_4
REMARK    2  A    between atoms: C_5  and  C_6
REMARK    3  A    between atoms: N_8  and  C_9
REMARK    4  A    between atoms: C_15  and  C_16
REMARK    5  A    between atoms: C_22  and  C_23
REMARK    6  A    between atoms: N_30  and  C_31
REMARK    7  A    between atoms: C_31  and  C_32
REMARK    8  A    between atoms: C_32  and  C_33
REMARK    9  A    between atoms: C_33  and  C_35
REMARK   10  A    between atoms: C_35  and  C_36
REMARK   11  A    between atoms: C_36  and  C_38
REMARK   12  A    between atoms: C_38  and  C_39
REMARK                            x       y       z     vdW  Elec       q    Type
REMARK                         _______ _______ _______ _____ _____    ______ ____
ROOT
ATOM      1  C   UNL     1     -12.404  13.377  70.356  0.00  0.00    +0.041 A 
ATOM      2  N   UNL     1     -12.248  12.033  70.271  0.00  0.00    -0.330 N 
ATOM      3  C   UNL     1     -11.609  11.734  69.115  0.00  0.00    +0.060 A 
ATOM      4  C   UNL     1     -11.616  12.915  68.382  0.00  0.00    +0.021 A 
ATOM      5  C   UNL     1     -11.872  13.990  69.227  0.00  0.00    +0.068 A 
ENDROOT
BRANCH   3   6
ATOM      6  C   UNL     1     -10.714  10.604  68.828  0.00  0.00    +0.016 A 
ATOM      7  C   UNL     1      -9.354  10.660  69.117  0.00  0.00    +0.004 A 
ATOM      8  C   UNL     1      -8.408   9.961  68.417  0.00  0.00    +0.030 A 
ATOM      9  C   UNL     1      -8.832   9.107  67.422  0.00  0.00    +0.140 A 
ATOM     10  F   UNL     1      -7.985   8.761  66.432  0.00  0.00    -0.204 F 
ATOM     11  C   UNL     1     -10.151   8.682  67.480  0.00  0.00    +0.030 A 
ATOM     12  C   UNL     1     -11.087   9.573  67.992  0.00  0.00    +0.004 A 
ENDBRANCH   3   6
BRANCH   4  13
ATOM     13  C   UNL     1     -11.458  13.040  66.949  0.00  0.00    +0.002 A 
ATOM     14  C   UNL     1     -12.450  13.620  66.166  0.00  0.00    +0.000 A 
ATOM     15  C   UNL     1     -12.574  13.172  64.858  0.00  0.00    +0.000 A 
ATOM     16  C   UNL     1     -11.571  12.422  64.284  0.00  0.00    +0.000 A 
ATOM     17  C   UNL     1     -10.369  12.359  64.959  0.00  0.00    +0.000 A 
ATOM     18  C   UNL     1     -10.275  12.751  66.281  0.00  0.00    +0.000 A 
ENDBRANCH   4  13
BRANCH   1  20
ATOM     19  C   UNL     1     -12.523  14.373  71.678  0.00  0.00    +0.006 C 
ATOM     20  C   UNL     1     -12.727  14.202  71.560  0.00  0.00    +0.038 C 
ATOM     21  C   UNL     1     -14.122  14.800  71.457  0.00  0.00    +0.006 C 
ENDBRANCH   1  20
BRANCH   5  22
ATOM     22  C   UNL     1     -11.157  15.276  69.171  0.00  0.00    +0.270 C 
ATOM     23  N   UNL     1      -9.750  15.345  69.122  0.00  0.00    -0.175 NA
ATOM     24  O   UNL     1     -11.774  16.339  68.854  0.00  0.00    -0.268 OA
BRANCH  23  25
ATOM     25  C   UNL     1      -9.075  16.270  68.281  0.00  0.00    +0.074 A 
ATOM     26  C   UNL     1      -8.915  15.884  66.956  0.00  0.00    +0.017 A 
ATOM     27  C   UNL     1      -8.099  16.671  66.153  0.00  0.00    +0.001 A 
ATOM     28  C   UNL     1      -7.195  17.562  66.717  0.00  0.00    +0.000 A 
ATOM     29  C   UNL     1      -7.472  17.969  68.004  0.00  0.00    +0.001 A 
ATOM     30  C   UNL     1      -8.554  17.461  68.712  0.00  0.00    +0.017 A 
ENDBRANCH  23  25
ENDBRANCH   5  22
BRANCH   2  31
ATOM     31  C   UNL     1     -12.364  11.114  71.391  0.00  0.00    +0.108 C 
BRANCH  31  32
ATOM     32  C   UNL     1     -13.251   9.945  71.063  0.00  0.00    +0.057 C 
BRANCH  32  33
ATOM     33  C   UNL     1     -13.070   8.923  72.349  0.00  0.00    +0.156 C 
ATOM     34  O   UNL     1     -14.575   8.762  72.499  0.00  0.00    -0.223 OA
BRANCH  33  35
ATOM     35  C   UNL     1     -12.969   7.599  71.363  0.00  0.00    +0.066 C 
BRANCH  35  36
ATOM     36  C   UNL     1     -11.324   7.681  71.221  0.00  0.00    +0.166 C 
ATOM     37  O   UNL     1     -11.203   6.169  71.117  0.00  0.00    -0.222 OA
BRANCH  36  38
ATOM     38  C   UNL     1     -11.112   7.636  72.859  0.00  0.00    +0.147 C 
BRANCH  38  39
ATOM     39  C   UNL     1      -9.670   7.987  72.951  0.00  0.00    +0.367 C 
ATOM     40  O   UNL     1      -8.909   7.639  74.049  0.00  0.00    -0.246 OA
ATOM     41  O   UNL     1      -9.217   8.835  72.123  0.00  0.00    -0.246 OA
ENDBRANCH  38  39
ENDBRANCH  36  38
ENDBRANCH  35  36
ENDBRANCH  33  35
ENDBRANCH  32  33
ENDBRANCH  31  32
ENDBRANCH   2  31
TORSDOF 12
ENDMDL
MODEL 2
REMARK VINA RESULT:      -7.6      1.088      1.771
REMARK  Name = 
REMARK  12 active torsions:
REMARK  status: ('A' for Active; 'I' for Inactive)
REMARK    1  A    between atoms: C_2  and  C_4
REMARK    2  A    between atoms: C_5  and  C_6
REMARK    3  A    between atoms: N_8  and  C_9
REMARK    4  A    between atoms: C_15  and  C_16
REMARK    5  A    between atoms: C_22  and  C_23
REMARK    6  A    between atoms: N_30  and  C_31
REMARK    7  A    between atoms: C_31  and  C_32
REMARK    8  A    between atoms: C_32  and  C_33
REMARK    9  A    between atoms: C_33  and  C_35
REMARK   10  A    between atoms: C_35  and  C_36
REMARK   11  A    between atoms: C_36  and  C_38
REMARK   12  A    between atoms: C_38  and  C_39
REMARK                            x       y       z     vdW  Elec       q    Type
REMARK                         _______ _______ _______ _____ _____    ______ ____
ROOT
ATOM      1  C   UNL     1     -12.375  13.322  70.225  0.00  0.00    +0.041 A 
ATOM      2  N   UNL     1     -12.132  11.998  70.062  0.00  0.00    -0.330 N 
ATOM      3  C   UNL     1     -11.512  11.804  68.874  0.00  0.00    +0.060 A 
ATOM      4  C   UNL     1     -11.622  13.018  68.207  0.00  0.00    +0.021 A 
ATOM      5  C   UNL     1     -11.922  14.028  69.116  0.00  0.00    +0.068 A 
ENDROOT
BRANCH   3   6
ATOM      6  C   UNL     1     -10.552  10.756  68.500  0.00  0.00    +0.016 A 
ATOM      7  C   UNL     1      -9.197  10.870  68.794  0.00  0.00    +0.004 A 
ATOM      8  C   UNL     1      -8.214  10.285  68.042  0.00  0.00    +0.030 A 
ATOM      9  C   UNL     1      -8.591   9.487  66.983  0.00  0.00    +0.140 A 
ATOM     10  F   UNL     1      -7.729   9.271  65.970  0.00  0.00    -0.204 F 
ATOM     11  C   UNL     1      -9.882   8.981  67.007  0.00  0.00    +0.030 A 
ATOM     12  C   UNL     1     -10.867   9.772  67.587  0.00  0.00    +0.004 A 
ENDBRANCH   3   6
BRANCH   4  13
ATOM     13  C   UNL     1     -11.521  13.229  66.779  0.00  0.00    +0.002 A 
ATOM     14  C   UNL     1     -12.610  13.676  66.040  0.00  0.00    +0.000 A 
ATOM     15  C   UNL     1     -12.693  13.272  64.715  0.00  0.00    +0.000 A 
ATOM     16  C   UNL     1     -11.598  12.716  64.091  0.00  0.00    +0.000 A 
ATOM     17  C   UNL     1     -10.386  12.815  64.741  0.00  0.00    +0.000 A 
ATOM     18  C   UNL     1     -10.323  13.159  66.079  0.00  0.00    +0.000 A 
ENDBRANCH   4  13
BRANCH   1  20
ATOM     19  C   UNL     1     -12.513  14.228  71.608  0.00  0.00    +0.006 C 
ATOM     20  C   UNL     1     -12.713  14.058  71.481  0.00  0.00    +0.038 C 
ATOM     21  C   UNL     1     -14.126  14.622  71.423  0.00  0.00    +0.006 C 
ENDBRANCH   1  20
BRANCH   5  22
ATOM     22  C   UNL     1     -11.299  15.361  69.109  0.00  0.00    +0.270 C 
ATOM     23  N   UNL     1      -9.962  15.557  68.704  0.00  0.00    -0.175 NA
ATOM     24  O   UNL     1     -12.018  16.406  69.164  0.00  0.00    -0.268 OA
BRANCH  23  25
ATOM     25  C   UNL     1      -9.579  16.662  67.898  0.00  0.00    +0.074 A 
ATOM     26  C   UNL     1      -8.737  17.591  68.498  0.00  0.00    +0.017 A 
ATOM     27  C   UNL     1      -8.495  18.774  67.812  0.00  0.00    +0.001 A 
ATOM     28  C   UNL     1      -9.332  19.180  66.780  0.00  0.00    +0.000 A 
ATOM     29  C   UNL     1     -10.068  18.185  66.174  0.00  0.00    +0.001 A 
ATOM     30  C   UNL     1     -10.022  16.870  66.619  0.00  0.00    +0.017 A 
ENDBRANCH  23  25
ENDBRANCH   5  22
BRANCH   2  31
ATOM     31  C   UNL     1     -12.148  11.016  71.134  0.00  0.00    +0.108 C 
BRANCH  31  32
ATOM     32  C   UNL     1     -13.318  10.079  71.015  0.00  0.00    +0.057 C 
BRANCH  32  33
ATOM     33  C   UNL     1     -13.092   8.986  72.232  0.00  0.00    +0.156 C 
ATOM     34  O   UNL     1     -13.569   7.836  71.360  0.00  0.00    -0.223 OA
BRANCH  33  35
ATOM     35  C   UNL     1     -11.515   8.737  71.801  0.00  0.00    +0.066 C 
BRANCH  35  36
ATOM     36  C   UNL     1     -11.753   7.155  71.387  0.00  0.00    +0.166 C 
ATOM     37  O   UNL     1     -10.871   6.667  72.526  0.00  0.00    -0.222 OA
BRANCH  36  38
ATOM     38  C   UNL     1     -10.478   7.167  70.337  0.00  0.00    +0.147 C 
BRANCH  38  39
ATOM     39  C   UNL     1     -10.785   5.955  69.530  0.00  0.00    +0.367 C 
ATOM     40  O   UNL     1     -10.253   4.721  69.847  0.00  0.00    -0.246 OA
ATOM     41  O   UNL     1     -11.335   6.125  68.400  0.00  0.00    -0.246 OA
ENDBRANCH  38  39
ENDBRANCH  36  38
ENDBRANCH  35  36
ENDBRANCH  33  35
ENDBRANCH  32  33
ENDBRANCH  31  32
ENDBRANCH   2  31
TORSDOF 12
ENDMDL
MODEL 3
REMARK VINA RESULT:      -7.0      3.492      7.038
REMARK  Name = 
REMARK  12 active torsions:
REMARK  status: ('A' for Active; 'I' for Inactive)
REMARK    1  A    between atoms: C_2  and  C_4
REMARK    2  A    between atoms: C_5  and  C_6
REMARK    3  A    between atoms: N_8  and  C_9
REMARK    4  A    between atoms: C_15  and  C_16
REMARK    5  A    between atoms: C_22  and  C_23
REMARK    6  A    between atoms: N_30  and  C_31
REMARK    7  A    between atoms: C_31  and  C_32
REMARK    8  A    between atoms: C_32  and  C_33
REMARK    9  A    between atoms: C_33  and  C_35
REMARK   10  A    between atoms: C_35  and  C_36
REMARK   11  A    between atoms: C_36  and  C_38
REMARK   12  A    between atoms: C_38  and  C_39
REMARK                            x       y       z     vdW  Elec       q    Type
REMARK                         _______ _______ _______ _____ _____    ______ ____
ROOT
ATOM      1  C   UNL     1     -10.591  11.001  65.595  0.00  0.00    +0.041 A 
ATOM      2  N   UNL     1     -11.016  11.125  66.876  0.00  0.00    -0.330 N 
ATOM      3  C   UNL     1     -10.584  10.060  67.593  0.00  0.00    +0.060 A 
ATOM      4  C   UNL     1     -10.107   9.159  66.648  0.00  0.00    +0.021 A 
ATOM      5  C   UNL     1      -9.871   9.820  65.446  0.00  0.00    +0.068 A 
ENDROOT
BRANCH   3   6
ATOM      6  C   UNL     1     -10.253   9.990  69.023  0.00  0.00    +0.016 A 
ATOM      7  C   UNL     1      -8.934   9.933  69.463  0.00  0.00    +0.004 A 
ATOM      8  C   UNL     1      -8.558   9.327  70.631  0.00  0.00    +0.030 A 
ATOM      9  C   UNL     1      -9.543   8.808  71.444  0.00  0.00    +0.140 A 
ATOM     10  F   UNL     1      -9.239   7.838  72.327  0.00  0.00    -0.204 F 
ATOM     11  C   UNL     1     -10.827   9.300  71.264  0.00  0.00    +0.030 A 
ATOM     12  C   UNL     1     -11.196   9.668  69.975  0.00  0.00    +0.004 A 
ENDBRANCH   3   6
BRANCH   4  13
ATOM     13  C   UNL     1      -9.939   7.734  66.826  0.00  0.00    +0.002 A 
ATOM     14  C   UNL     1      -8.674   7.171  66.956  0.00  0.00    +0.000 A 
ATOM     15  C   UNL     1      -8.501   5.873  66.497  0.00  0.00    +0.000 A 
ATOM     16  C   UNL     1      -9.598   5.087  66.214  0.00  0.00    +0.000 A 
ATOM     17  C   UNL     1     -10.826   5.545  66.641  0.00  0.00    +0.000 A 
ATOM     18  C   UNL     1     -10.997   6.858  67.038  0.00  0.00    +0.000 A 
ENDBRANCH   4  13
BRANCH   1  20
ATOM     19  C   UNL     1     -10.256  12.128  64.425  0.00  0.00    +0.006 C 
ATOM     20  C   UNL     1     -10.515  12.050  64.534  0.00  0.00    +0.038 C 
ATOM     21  C   UNL     1     -11.644  11.894  63.526  0.00  0.00    +0.006 C 
ENDBRANCH   1  20
BRANCH   5  22
ATOM     22  C   UNL     1      -8.684   9.607  64.603  0.00  0.00    +0.270 C 
ATOM     23  N   UNL     1      -8.784   9.112  63.286  0.00  0.00    -0.175 NA
ATOM     24  O   UNL     1      -7.576  10.146  64.909  0.00  0.00    -0.268 OA
BRANCH  23  25
ATOM     25  C   UNL     1      -7.995   9.637  62.228  0.00  0.00    +0.074 A 
ATOM     26  C   UNL     1      -7.013   8.793  61.723  0.00  0.00    +0.017 A 
ATOM     27  C   UNL     1      -6.103   9.333  60.825  0.00  0.00    +0.001 A 
ATOM     28  C   UNL     1      -5.935  10.709  60.725  0.00  0.00    +0.000 A 
ATOM     29  C   UNL     1      -6.990  11.479  61.163  0.00  0.00    +0.001 A 
ATOM     30  C   UNL     1      -8.122  10.908  61.733  0.00  0.00    +0.017 A 
ENDBRANCH  23  25
ENDBRANCH   5  22
BRANCH   2  31
ATOM     31  C   UNL     1     -11.486  12.364  67.476  0.00  0.00    +0.108 C 
BRANCH  31  32
ATOM     32  C   UNL     1     -10.351  13.186  68.019  0.00  0.00    +0.057 C 
BRANCH  32  33
ATOM     33  C   UNL     1     -11.056  14.612  68.464  0.00  0.00    +0.156 C 
ATOM     34  O   UNL     1     -12.251  14.365  67.558  0.00  0.00    -0.223 OA
BRANCH  33  35
ATOM     35  C   UNL     1     -11.814  13.907  69.754  0.00  0.00    +0.066 C 
BRANCH  35  36
ATOM     36  C   UNL     1     -12.454  15.326  70.307  0.00  0.00    +0.166 C 
ATOM     37  O   UNL     1     -11.109  16.030  70.221  0.00  0.00    -0.222 OA
BRANCH  36  38
ATOM     38  C   UNL     1     -12.192  14.909  71.884  0.00  0.00    +0.147 C 
BRANCH  38  39
ATOM     39  C   UNL     1     -13.594  14.822  72.374  0.00  0.00    +0.367 C 
ATOM     40  O   UNL     1     -14.223  13.608  72.559  0.00  0.00    -0.246 OA
ATOM     41  O   UNL     1     -14.284  15.887  72.373  0.00  0.00    -0.246 OA
ENDBRANCH  38  39
ENDBRANCH  36  38
ENDBRANCH  35  36
ENDBRANCH  33  35
ENDBRANCH  32  33
ENDBRANCH  31  32
ENDBRANCH   2  31
TORSDOF 12
ENDMDL
MODEL 4
REMARK VINA RESULT:      -6.9      2.324      8.186
REMARK  Name = 
REMARK  12 active torsions:
REMARK  status: ('A' for Active; 'I' for Inactive)
REMARK    1  A    between atoms: C_2  and  C_4
REMARK    2  A    between atoms: C_5  and  C_6
REMARK    3  A    between atoms: N_8  and  C_9
REMARK    4  A    between atoms: C_15  and  C_16
REMARK    5  A    between atoms: C_22  and  C_23
REMARK    6  A    between atoms: N_30  and  C_31
REMARK    7  A    between atoms: C_31  and  C_32
REMARK    8  A    between atoms: C_32  and  C_33
REMARK    9  A    between atoms: C_33  and  C_35
REMARK   10  A    between atoms: C_35  and  C_36
REMARK   11  A    between atoms: C_36  and  C_38
REMARK   12  A    between atoms: C_38  and  C_39
REMARK                            x       y       z     vdW  Elec       q    Type
REMARK                         _______ _______ _______ _____ _____    ______ ____
ROOT
ATOM      1  C   UNL     1     -11.792  14.112  70.438  0.00  0.00    +0.041 A 
ATOM      2  N   UNL     1     -11.439  14.738  69.288  0.00  0.00    -0.330 N 
ATOM      3  C   UNL     1     -11.172  13.808  68.340  0.00  0.00    +0.060 A 
ATOM      4  C   UNL     1     -11.119  12.600  69.025  0.00  0.00    +0.021 A 
ATOM      5  C   UNL     1     -11.744  12.733  70.261  0.00  0.00    +0.068 A 
ENDROOT
BRANCH   3   6
ATOM      6  C   UNL     1     -11.334  13.910  66.883  0.00  0.00    +0.016 A 
ATOM      7  C   UNL     1     -12.546  13.626  66.263  0.00  0.00    +0.004 A 
ATOM      8  C   UNL     1     -12.642  13.159  64.980  0.00  0.00    +0.030 A 
ATOM      9  C   UNL     1     -11.483  13.031  64.244  0.00  0.00    +0.140 A 
ATOM     10  F   UNL     1     -11.446  12.183  63.198  0.00  0.00    -0.204 F 
ATOM     11  C   UNL     1     -10.387  13.769  64.667  0.00  0.00    +0.030 A 
ATOM     12  C   UNL     1     -10.251  13.984  66.033  0.00  0.00    +0.004 A 
ENDBRANCH   3   6
BRANCH   4  13
ATOM     13  C   UNL     1     -10.462  11.389  68.586  0.00  0.00    +0.002 A 
ATOM     14  C   UNL     1     -10.939  10.666  67.498  0.00  0.00    +0.000 A 
ATOM     15  C   UNL     1     -10.731   9.294  67.501  0.00  0.00    +0.000 A 
ATOM     16  C   UNL     1      -9.832   8.732  68.381  0.00  0.00    +0.000 A 
ATOM     17  C   UNL     1      -8.991   9.592  69.055  0.00  0.00    +0.000 A 
ATOM     18  C   UNL     1      -9.245  10.951  69.095  0.00  0.00    +0.000 A 
ENDBRANCH   4  13
BRANCH   1  20
ATOM     19  C   UNL     1     -12.348  14.857  71.812  0.00  0.00    +0.006 C 
ATOM     20  C   UNL     1     -12.491  14.680  71.630  0.00  0.00    +0.038 C 
ATOM     21  C   UNL     1     -13.915  15.093  71.285  0.00  0.00    +0.006 C 
ENDBRANCH   1  20
BRANCH   5  22
ATOM     22  C   UNL     1     -12.658  11.735  70.840  0.00  0.00    +0.270 C 
ATOM     23  N   UNL     1     -12.840  10.464  70.256  0.00  0.00    -0.175 NA
ATOM     24  O   UNL     1     -13.070  11.859  72.034  0.00  0.00    -0.268 OA
BRANCH  23  25
ATOM     25  C   UNL     1     -12.934   9.286  71.045  0.00  0.00    +0.074 A 
ATOM     26  C   UNL     1     -11.731   8.755  71.493  0.00  0.00    +0.017 A 
ATOM     27  C   UNL     1     -11.767   7.508  72.102  0.00  0.00    +0.001 A 
ATOM     28  C   UNL     1     -12.862   6.668  71.935  0.00  0.00    +0.000 A 
ATOM     29  C   UNL     1     -14.043   7.281  71.577  0.00  0.00    +0.001 A 
ATOM     30  C   UNL     1     -14.110   8.647  71.333  0.00  0.00    +0.017 A 
ENDBRANCH  23  25
ENDBRANCH   5  22
BRANCH   2  31
ATOM     31  C   UNL     1     -11.702  16.138  68.994  0.00  0.00    +0.108 C 
BRANCH  31  32
ATOM     32  C   UNL     1     -10.586  17.026  69.468  0.00  0.00    +0.057 C 
BRANCH  32  33
ATOM     33  C   UNL     1      -9.716  17.353  68.103  0.00  0.00    +0.156 C 
ATOM     34  O   UNL     1     -10.939  17.911  67.393  0.00  0.00    -0.223 OA
BRANCH  33  35
ATOM     35  C   UNL     1      -9.284  18.849  68.659  0.00  0.00    +0.066 C 
BRANCH  35  36
ATOM     36  C   UNL     1      -7.753  18.770  68.041  0.00  0.00    +0.166 C 
ATOM     37  O   UNL     1      -7.204  19.661  69.144  0.00  0.00    -0.222 OA
BRANCH  36  38
ATOM     38  C   UNL     1      -8.012  20.067  67.052  0.00  0.00    +0.147 C 
BRANCH  38  39
ATOM     39  C   UNL     1      -7.400  19.568  65.792  0.00  0.00    +0.367 C 
ATOM     40  O   UNL     1      -7.477  18.240  65.426  0.00  0.00    -0.246 OA
ATOM     41  O   UNL     1      -6.589  20.335  65.188  0.00  0.00    -0.246 OA
ENDBRANCH  38  39
ENDBRANCH  36  38
ENDBRANCH  35  36
ENDBRANCH  33  35
ENDBRANCH  32  33
ENDBRANCH  31  32
ENDBRANCH   2  31
TORSDOF 12
ENDMDL
MODEL 5
REMARK VINA RESULT:      -6.9      3.177      5.918
REMARK  Name = 
REMARK  12 active torsions:
REMARK  status: ('A' for Active; 'I' for Inactive)
REMARK    1  A    between atoms: C_2  and  C_4
REMARK    2  A    between atoms: C_5  and  C_6
REMARK    3  A    between atoms: N_8  and  C_9
REMARK    4  A    between atoms: C_15  and  C_16
REMARK    5  A    between atoms: C_22  and  C_23
REMARK    6  A    between atoms: N_30  and  C_31
REMARK    7  A    between atoms: C_31  and  C_32
REMARK    8  A    between atoms: C_32  and  C_33
REMARK    9  A    between atoms: C_33  and  C_35
REMARK   10  A    between atoms: C_35  and  C_36
REMARK   11  A    between atoms: C_36  and  C_38
REMARK   12  A    between atoms: C_38  and  C_39
REMARK                            x       y       z     vdW  Elec       q    Type
REMARK                         _______ _______ _______ _____ _____    ______ ____
ROOT
ATOM      1  C   UNL     1      -8.000  14.399  68.592  0.00  0.00    +0.041 A 
ATOM      2  N   UNL     1      -9.130  13.822  68.114  0.00  0.00    -0.330 N 
ATOM      3  C   UNL     1      -9.833  14.741  67.409  0.00  0.00    +0.060 A 
ATOM      4  C   UNL     1      -9.225  15.957  67.693  0.00  0.00    +0.021 A 
ATOM      5  C   UNL     1      -7.952  15.736  68.211  0.00  0.00    +0.068 A 
ENDROOT
BRANCH   3   6
ATOM      6  C   UNL     1     -10.729  14.528  66.264  0.00  0.00    +0.016 A 
ATOM      7  C   UNL     1     -12.111  14.481  66.419  0.00  0.00    +0.004 A 
ATOM      8  C   UNL     1     -12.935  13.766  65.593  0.00  0.00    +0.030 A 
ATOM      9  C   UNL     1     -12.374  13.119  64.512  0.00  0.00    +0.140 A 
ATOM     10  F   UNL     1     -13.013  12.071  63.956  0.00  0.00    -0.204 F 
ATOM     11  C   UNL     1     -11.135  13.572  64.085  0.00  0.00    +0.030 A 
ATOM     12  C   UNL     1     -10.266  14.062  65.052  0.00  0.00    +0.004 A 
ENDBRANCH   3   6
BRANCH   4  13
ATOM     13  C   UNL     1      -9.817  17.270  67.556  0.00  0.00    +0.002 A 
ATOM     14  C   UNL     1     -10.349  17.694  66.343  0.00  0.00    +0.000 A 
ATOM     15  C   UNL     1     -10.307  19.054  66.068  0.00  0.00    +0.000 A 
ATOM     16  C   UNL     1     -10.036  19.956  67.074  0.00  0.00    +0.000 A 
ATOM     17  C   UNL     1     -10.064  19.481  68.368  0.00  0.00    +0.000 A 
ATOM     18  C   UNL     1     -10.043  18.123  68.629  0.00  0.00    +0.000 A 
ENDBRANCH   4  13
BRANCH   1  20
ATOM     19  C   UNL     1      -6.778  13.590  69.369  0.00  0.00    +0.006 C 
ATOM     20  C   UNL     1      -6.768  13.736  69.117  0.00  0.00    +0.038 C 
ATOM     21  C   UNL     1      -5.978  13.078  67.996  0.00  0.00    +0.006 C 
ENDBRANCH   1  20
BRANCH   5  22
ATOM     22  C   UNL     1      -6.756  16.505  67.829  0.00  0.00    +0.270 C 
ATOM     23  N   UNL     1      -6.281  16.532  66.501  0.00  0.00    -0.175 NA
ATOM     24  O   UNL     1      -6.300  17.406  68.598  0.00  0.00    -0.268 OA
BRANCH  23  25
ATOM     25  C   UNL     1      -5.805  17.729  65.902  0.00  0.00    +0.074 A 
ATOM     26  C   UNL     1      -6.760  18.708  65.656  0.00  0.00    +0.017 A 
ATOM     27  C   UNL     1      -6.371  19.808  64.903  0.00  0.00    +0.001 A 
ATOM     28  C   UNL     1      -5.225  19.762  64.119  0.00  0.00    +0.000 A 
ATOM     29  C   UNL     1      -4.284  18.824  64.481  0.00  0.00    +0.001 A 
ATOM     30  C   UNL     1      -4.505  17.935  65.526  0.00  0.00    +0.017 A 
ENDBRANCH  23  25
ENDBRANCH   5  22
BRANCH   2  31
ATOM     31  C   UNL     1      -9.349  12.388  68.015  0.00  0.00    +0.108 C 
BRANCH  31  32
ATOM     32  C   UNL     1     -10.162  11.868  69.169  0.00  0.00    +0.057 C 
BRANCH  32  33
ATOM     33  C   UNL     1     -11.695  12.398  68.860  0.00  0.00    +0.156 C 
ATOM     34  O   UNL     1     -12.211  10.977  68.699  0.00  0.00    -0.223 OA
BRANCH  33  35
ATOM     35  C   UNL     1     -12.080  12.417  70.468  0.00  0.00    +0.066 C 
BRANCH  35  36
ATOM     36  C   UNL     1     -12.766  13.919  70.409  0.00  0.00    +0.166 C 
ATOM     37  O   UNL     1     -11.475  14.586  70.857  0.00  0.00    -0.222 OA
BRANCH  36  38
ATOM     38  C   UNL     1     -13.308  13.808  71.966  0.00  0.00    +0.147 C 
BRANCH  38  39
ATOM     39  C   UNL     1     -13.883  15.168  72.146  0.00  0.00    +0.367 C 
ATOM     40  O   UNL     1     -13.556  15.953  73.233  0.00  0.00    -0.246 OA
ATOM     41  O   UNL     1     -14.872  15.489  71.420  0.00  0.00    -0.246 OA
ENDBRANCH  38  39
ENDBRANCH  36  38
ENDBRANCH  35  36
ENDBRANCH  33  35
ENDBRANCH  32  33
ENDBRANCH  31  32
ENDBRANCH   2  31
TORSDOF 12
ENDMDL
MODEL 6
REMARK VINA RESULT:      -6.8      2.329      3.929
REMARK  Name = 
REMARK  12 active torsions:
REMARK  status: ('A' for Active; 'I' for Inactive)
REMARK    1  A    between atoms: C_2  and  C_4
REMARK    2  A    between atoms: C_5  and  C_6
REMARK    3  A    between atoms: N_8  and  C_9
REMARK    4  A    between atoms: C_15  and  C_16
REMARK    5  A    between atoms: C_22  and  C_23
REMARK    6  A    between atoms: N_30  and  C_31
REMARK    7  A    between atoms: C_31  and  C_32
REMARK    8  A    between atoms: C_32  and  C_33
REMARK    9  A    between atoms: C_33  and  C_35
REMARK   10  A    between atoms: C_35  and  C_36
REMARK   11  A    between atoms: C_36  and  C_38
REMARK   12  A    between atoms: C_38  and  C_39
REMARK                            x       y       z     vdW  Elec       q    Type
REMARK                         _______ _______ _______ _____ _____    ______ ____
ROOT
ATOM      1  C   UNL     1     -11.287  10.321  69.006  0.00  0.00    +0.041 A 
ATOM      2  N   UNL     1     -10.618   9.392  68.280  0.00  0.00    -0.330 N 
ATOM      3  C   UNL     1     -10.158   9.965  67.143  0.00  0.00    +0.060 A 
ATOM      4  C   UNL     1     -10.791  11.200  67.079  0.00  0.00    +0.021 A 
ATOM      5  C   UNL     1     -11.288  11.538  68.334  0.00  0.00    +0.068 A 
ENDROOT
BRANCH   3   6
ATOM      6  C   UNL     1      -8.958   9.626  66.365  0.00  0.00    +0.016 A 
ATOM      7  C   UNL     1      -7.745  10.275  66.577  0.00  0.00    +0.004 A 
ATOM      8  C   UNL     1      -6.801  10.439  65.601  0.00  0.00    +0.030 A 
ATOM      9  C   UNL     1      -7.034   9.873  64.365  0.00  0.00    +0.140 A 
ATOM     10  F   UNL     1      -6.408  10.363  63.277  0.00  0.00    -0.204 F 
ATOM     11  C   UNL     1      -7.957   8.840  64.314  0.00  0.00    +0.030 A 
ATOM     12  C   UNL     1      -9.027   8.894  65.199  0.00  0.00    +0.004 A 
ENDBRANCH   3   6
BRANCH   4  13
ATOM     13  C   UNL     1     -10.989  12.007  65.895  0.00  0.00    +0.002 A 
ATOM     14  C   UNL     1     -10.267  13.179  65.695  0.00  0.00    +0.000 A 
ATOM     15  C   UNL     1     -10.879  14.191  64.969  0.00  0.00    +0.000 A 
ATOM     16  C   UNL     1     -12.011  13.925  64.229  0.00  0.00    +0.000 A 
ATOM     17  C   UNL     1     -12.344  12.600  64.044  0.00  0.00    +0.000 A 
ATOM     18  C   UNL     1     -11.771  11.607  64.819  0.00  0.00    +0.000 A 
ENDBRANCH   4  13
BRANCH   1  20
ATOM     19  C   UNL     1     -11.537  10.449  70.641  0.00  0.00    +0.006 C 
ATOM     20  C   UNL     1     -11.670  10.274  70.450  0.00  0.00    +0.038 C 
ATOM     21  C   UNL     1     -13.176  10.131  70.615  0.00  0.00    +0.006 C 
ENDBRANCH   1  20
BRANCH   5  22
ATOM     22  C   UNL     1     -11.186  12.879  68.933  0.00  0.00    +0.270 C 
ATOM     23  N   UNL     1     -12.304  13.532  69.493  0.00  0.00    -0.175 NA
ATOM     24  O   UNL     1     -10.053  13.358  69.245  0.00  0.00    -0.268 OA
BRANCH  23  25
ATOM     25  C   UNL     1     -12.211  14.265  70.707  0.00  0.00    +0.074 A 
ATOM     26  C   UNL     1     -12.934  13.759  71.781  0.00  0.00    +0.017 A 
ATOM     27  C   UNL     1     -13.021  14.545  72.922  0.00  0.00    +0.001 A 
ATOM     28  C   UNL     1     -12.738  15.905  72.871  0.00  0.00    +0.000 A 
ATOM     29  C   UNL     1     -11.940  16.316  71.826  0.00  0.00    +0.001 A 
ATOM     30  C   UNL     1     -11.505  15.430  70.848  0.00  0.00    +0.017 A 
ENDBRANCH  23  25
ENDBRANCH   5  22
BRANCH   2  31
ATOM     31  C   UNL     1     -10.122   8.130  68.806  0.00  0.00    +0.108 C 
BRANCH  31  32
ATOM     32  C   UNL     1     -10.956   6.967  68.344  0.00  0.00    +0.057 C 
BRANCH  32  33
ATOM     33  C   UNL     1     -10.714   5.808  69.496  0.00  0.00    +0.156 C 
ATOM     34  O   UNL     1      -9.392   6.429  69.918  0.00  0.00    -0.223 OA
BRANCH  33  35
ATOM     35  C   UNL     1     -11.549   6.673  70.631  0.00  0.00    +0.066 C 
BRANCH  35  36
ATOM     36  C   UNL     1     -10.588   6.184  71.884  0.00  0.00    +0.166 C 
ATOM     37  O   UNL     1     -11.718   5.382  72.510  0.00  0.00    -0.222 OA
BRANCH  36  38
ATOM     38  C   UNL     1     -10.967   7.516  72.784  0.00  0.00    +0.147 C 
BRANCH  38  39
ATOM     39  C   UNL     1      -9.605   8.004  73.127  0.00  0.00    +0.367 C 
ATOM     40  O   UNL     1      -8.883   8.801  72.262  0.00  0.00    -0.246 OA
ATOM     41  O   UNL     1      -9.018   7.466  74.114  0.00  0.00    -0.246 OA
ENDBRANCH  38  39
ENDBRANCH  36  38
ENDBRANCH  35  36
ENDBRANCH  33  35
ENDBRANCH  32  33
ENDBRANCH  31  32
ENDBRANCH   2  31
TORSDOF 12
ENDMDL
MODEL 7
REMARK VINA RESULT:      -6.8      1.943      2.924
REMARK  Name = 
REMARK  12 active torsions:
REMARK  status: ('A' for Active; 'I' for Inactive)
REMARK    1  A    between atoms: C_2  and  C_4
REMARK    2  A    between atoms: C_5  and  C_6
REMARK    3  A    between atoms: N_8  and  C_9
REMARK    4  A    between atoms: C_15  and  C_16
REMARK    5  A    between atoms: C_22  and  C_23
REMARK    6  A    between atoms: N_30  and  C_31
REMARK    7  A    between atoms: C_31  and  C_32
REMARK    8  A    between atoms: C_32  and  C_33
REMARK    9  A    between atoms: C_33  and  C_35
REMARK   10  A    between atoms: C_35  and  C_36
REMARK   11  A    between atoms: C_36  and  C_38
REMARK   12  A    between atoms: C_38  and  C_39
REMARK                            x       y       z     vdW  Elec       q    Type
REMARK                         _______ _______ _______ _____ _____    ______ ____
ROOT
ATOM      1  C   UNL     1     -11.324  10.455  69.103  0.00  0.00    +0.041 A 
ATOM      2  N   UNL     1     -10.641   9.481  68.453  0.00  0.00    -0.330 N 
ATOM      3  C   UNL     1     -10.195   9.967  67.270  0.00  0.00    +0.060 A 
ATOM      4  C   UNL     1     -10.851  11.180  67.107  0.00  0.00    +0.021 A 
ATOM      5  C   UNL     1     -11.351  11.612  68.332  0.00  0.00    +0.068 A 
ENDROOT
BRANCH   3   6
ATOM      6  C   UNL     1      -8.991   9.587  66.518  0.00  0.00    +0.016 A 
ATOM      7  C   UNL     1      -7.770  10.220  66.728  0.00  0.00    +0.004 A 
ATOM      8  C   UNL     1      -6.811  10.342  65.760  0.00  0.00    +0.030 A 
ATOM      9  C   UNL     1      -7.038   9.747  64.537  0.00  0.00    +0.140 A 
ATOM     10  F   UNL     1      -6.390  10.196  63.445  0.00  0.00    -0.204 F 
ATOM     11  C   UNL     1      -7.979   8.728  64.501  0.00  0.00    +0.030 A 
ATOM     12  C   UNL     1      -9.058   8.824  65.371  0.00  0.00    +0.004 A 
ENDBRANCH   3   6
BRANCH   4  13
ATOM     13  C   UNL     1     -11.068  11.883  65.861  0.00  0.00    +0.002 A 
ATOM     14  C   UNL     1     -12.299  12.455  65.564  0.00  0.00    +0.000 A 
ATOM     15  C   UNL     1     -12.664  12.530  64.226  0.00  0.00    +0.000 A 
ATOM     16  C   UNL     1     -11.722  12.331  63.240  0.00  0.00    +0.000 A 
ATOM     17  C   UNL     1     -10.399  12.312  63.629  0.00  0.00    +0.000 A 
ATOM     18  C   UNL     1     -10.051  12.174  64.960  0.00  0.00    +0.000 A 
ENDBRANCH   4  13
BRANCH   1  20
ATOM     19  C   UNL     1     -11.603  10.739  70.713  0.00  0.00    +0.006 C 
ATOM     20  C   UNL     1     -11.701  10.521  70.548  0.00  0.00    +0.038 C 
ATOM     21  C   UNL     1     -13.158  10.132  70.753  0.00  0.00    +0.006 C 
ENDBRANCH   1  20
BRANCH   5  22
ATOM     22  C   UNL     1     -11.272  13.000  68.817  0.00  0.00    +0.270 C 
ATOM     23  N   UNL     1     -10.121  13.792  68.624  0.00  0.00    -0.175 NA
ATOM     24  O   UNL     1     -12.327  13.627  69.140  0.00  0.00    -0.268 OA
BRANCH  23  25
ATOM     25  C   UNL     1     -10.209  15.163  68.260  0.00  0.00    +0.074 A 
ATOM     26  C   UNL     1     -10.370  15.424  66.905  0.00  0.00    +0.017 A 
ATOM     27  C   UNL     1     -10.270  16.745  66.489  0.00  0.00    +0.001 A 
ATOM     28  C   UNL     1      -9.668  17.700  67.300  0.00  0.00    +0.000 A 
ATOM     29  C   UNL     1      -9.628  17.409  68.646  0.00  0.00    +0.001 A 
ATOM     30  C   UNL     1     -10.099  16.201  69.145  0.00  0.00    +0.017 A 
ENDBRANCH  23  25
ENDBRANCH   5  22
BRANCH   2  31
ATOM     31  C   UNL     1     -10.119   8.277  69.080  0.00  0.00    +0.108 C 
BRANCH  31  32
ATOM     32  C   UNL     1     -10.602   7.034  68.385  0.00  0.00    +0.057 C 
BRANCH  32  33
ATOM     33  C   UNL     1     -11.354   6.168  69.573  0.00  0.00    +0.156 C 
ATOM     34  O   UNL     1     -10.422   4.984  69.373  0.00  0.00    -0.223 OA
BRANCH  33  35
ATOM     35  C   UNL     1     -10.380   6.810  70.745  0.00  0.00    +0.066 C 
BRANCH  35  36
ATOM     36  C   UNL     1     -11.288   6.220  71.993  0.00  0.00    +0.166 C 
ATOM     37  O   UNL     1     -12.574   6.751  71.380  0.00  0.00    -0.222 OA
BRANCH  36  38
ATOM     38  C   UNL     1     -11.085   7.597  72.883  0.00  0.00    +0.147 C 
BRANCH  38  39
ATOM     39  C   UNL     1      -9.974   7.175  73.777  0.00  0.00    +0.367 C 
ATOM     40  O   UNL     1     -10.139   6.176  74.715  0.00  0.00    -0.246 OA
ATOM     41  O   UNL     1      -8.951   7.924  73.839  0.00  0.00    -0.246 OA
ENDBRANCH  38  39
ENDBRANCH  36  38
ENDBRANCH  35  36
ENDBRANCH  33  35
ENDBRANCH  32  33
ENDBRANCH  31  32
ENDBRANCH   2  31
TORSDOF 12
ENDMDL
MODEL 8
REMARK VINA RESULT:      -6.7      2.757      5.313
REMARK  Name = 
REMARK  12 active torsions:
REMARK  status: ('A' for Active; 'I' for Inactive)
REMARK    1  A    between atoms: C_2  and  C_4
REMARK    2  A    between atoms: C_5  and  C_6
REMARK    3  A    between atoms: N_8  and  C_9
REMARK    4  A    between atoms: C_15  and  C_16
REMARK    5  A    between atoms: C_22  and  C_23
REMARK    6  A    between atoms: N_30  and  C_31
REMARK    7  A    between atoms: C_31  and  C_32
REMARK    8  A    between atoms: C_32  and  C_33
REMARK    9  A    between atoms: C_33  and  C_35
REMARK   10  A    between atoms: C_35  and  C_36
REMARK   11  A    between atoms: C_36  and  C_38
REMARK   12  A    between atoms: C_38  and  C_39
REMARK                            x       y       z     vdW  Elec       q    Type
REMARK                         _______ _______ _______ _____ _____    ______ ____
ROOT
ATOM      1  C   UNL     1      -7.906  14.462  68.629  0.00  0.00    +0.041 A 
ATOM      2  N   UNL     1      -9.047  13.874  68.195  0.00  0.00    -0.330 N 
ATOM      3  C   UNL     1      -9.773  14.778  67.494  0.00  0.00    +0.060 A 
ATOM      4  C   UNL     1      -9.160  16.001  67.739  0.00  0.00    +0.021 A 
ATOM      5  C   UNL     1      -7.873  15.792  68.224  0.00  0.00    +0.068 A 
ENDROOT
BRANCH   3   6
ATOM      6  C   UNL     1     -10.701  14.543  66.379  0.00  0.00    +0.016 A 
ATOM      7  C   UNL     1     -12.069  14.398  66.587  0.00  0.00    +0.004 A 
ATOM      8  C   UNL     1     -12.878  13.657  65.770  0.00  0.00    +0.030 A 
ATOM      9  C   UNL     1     -12.322  13.084  64.646  0.00  0.00    +0.140 A 
ATOM     10  F   UNL     1     -12.914  12.014  64.079  0.00  0.00    -0.204 F 
ATOM     11  C   UNL     1     -11.134  13.632  64.186  0.00  0.00    +0.030 A 
ATOM     12  C   UNL     1     -10.259  14.148  65.134  0.00  0.00    +0.004 A 
ENDBRANCH   3   6
BRANCH   4  13
ATOM     13  C   UNL     1      -9.760  17.309  67.595  0.00  0.00    +0.002 A 
ATOM     14  C   UNL     1     -10.334  17.708  66.393  0.00  0.00    +0.000 A 
ATOM     15  C   UNL     1     -10.305  19.062  66.089  0.00  0.00    +0.000 A 
ATOM     16  C   UNL     1     -10.003  19.985  67.067  0.00  0.00    +0.000 A 
ATOM     17  C   UNL     1      -9.986  19.536  68.370  0.00  0.00    +0.000 A 
ATOM     18  C   UNL     1      -9.952  18.184  68.657  0.00  0.00    +0.000 A 
ENDBRANCH   4  13
BRANCH   1  20
ATOM     19  C   UNL     1      -6.661  13.667  69.384  0.00  0.00    +0.006 C 
ATOM     20  C   UNL     1      -6.657  13.812  69.132  0.00  0.00    +0.038 C 
ATOM     21  C   UNL     1      -5.886  13.155  67.996  0.00  0.00    +0.006 C 
ENDBRANCH   1  20
BRANCH   5  22
ATOM     22  C   UNL     1      -6.691  16.557  67.794  0.00  0.00    +0.270 C 
ATOM     23  N   UNL     1      -6.292  16.614  66.443  0.00  0.00    -0.175 NA
ATOM     24  O   UNL     1      -6.180  17.432  68.559  0.00  0.00    -0.268 OA
BRANCH  23  25
ATOM     25  C   UNL     1      -5.835  17.822  65.848  0.00  0.00    +0.074 A 
ATOM     26  C   UNL     1      -6.801  18.796  65.630  0.00  0.00    +0.017 A 
ATOM     27  C   UNL     1      -6.433  19.908  64.883  0.00  0.00    +0.001 A 
ATOM     28  C   UNL     1      -5.301  19.879  64.078  0.00  0.00    +0.000 A 
ATOM     29  C   UNL     1      -4.347  18.943  64.414  0.00  0.00    +0.001 A 
ATOM     30  C   UNL     1      -4.543  18.042  65.452  0.00  0.00    +0.017 A 
ENDBRANCH  23  25
ENDBRANCH   5  22
BRANCH   2  31
ATOM     31  C   UNL     1      -9.265  12.438  68.128  0.00  0.00    +0.108 C 
BRANCH  31  32
ATOM     32  C   UNL     1     -10.386  12.001  69.029  0.00  0.00    +0.057 C 
BRANCH  32  33
ATOM     33  C   UNL     1     -11.305  11.006  68.085  0.00  0.00    +0.156 C 
ATOM     34  O   UNL     1     -10.251  10.985  66.989  0.00  0.00    -0.223 OA
BRANCH  33  35
ATOM     35  C   UNL     1     -10.679   9.650  68.794  0.00  0.00    +0.066 C 
BRANCH  35  36
ATOM     36  C   UNL     1     -10.897  10.208  70.334  0.00  0.00    +0.166 C 
ATOM     37  O   UNL     1      -9.774   9.332  70.868  0.00  0.00    -0.222 OA
BRANCH  36  38
ATOM     38  C   UNL     1     -12.027   9.049  70.666  0.00  0.00    +0.147 C 
BRANCH  38  39
ATOM     39  C   UNL     1     -12.874   9.777  71.649  0.00  0.00    +0.367 C 
ATOM     40  O   UNL     1     -13.773   9.115  72.460  0.00  0.00    -0.246 OA
ATOM     41  O   UNL     1     -12.941  11.040  71.546  0.00  0.00    -0.246 OA
ENDBRANCH  38  39
ENDBRANCH  36  38
ENDBRANCH  35  36
ENDBRANCH  33  35
ENDBRANCH  32  33
ENDBRANCH  31  32
ENDBRANCH   2  31
TORSDOF 12
ENDMDL
MODEL 9
REMARK VINA RESULT:      -6.7      3.501      6.066
REMARK  Name = 
REMARK  12 active torsions:
REMARK  status: ('A' for Active; 'I' for Inactive)
REMARK    1  A    between atoms: C_2  and  C_4
REMARK    2  A    between atoms: C_5  and  C_6
REMARK    3  A    between atoms: N_8  and  C_9
REMARK    4  A    between atoms: C_15  and  C_16
REMARK    5  A    between atoms: C_22  and  C_23
REMARK    6  A    between atoms: N_30  and  C_31
REMARK    7  A    between atoms: C_31  and  C_32
REMARK    8  A    between atoms: C_32  and  C_33
REMARK    9  A    between atoms: C_33  and  C_35
REMARK   10  A    between atoms: C_35  and  C_36
REMARK   11  A    between atoms: C_36  and  C_38
REMARK   12  A    between atoms: C_38  and  C_39
REMARK                            x       y       z     vdW  Elec       q    Type
REMARK                         _______ _______ _______ _____ _____    ______ ____
ROOT
ATOM      1  C   UNL     1      -7.798  14.574  68.561  0.00  0.00    +0.041 A 
ATOM      2  N   UNL     1      -8.929  13.963  68.131  0.00  0.00    -0.330 N 
ATOM      3  C   UNL     1      -9.686  14.858  67.452  0.00  0.00    +0.060 A 
ATOM      4  C   UNL     1      -9.102  16.093  67.708  0.00  0.00    +0.021 A 
ATOM      5  C   UNL     1      -7.804  15.910  68.175  0.00  0.00    +0.068 A 
ENDROOT
BRANCH   3   6
ATOM      6  C   UNL     1     -10.621  14.616  66.344  0.00  0.00    +0.016 A 
ATOM      7  C   UNL     1     -11.987  14.465  66.563  0.00  0.00    +0.004 A 
ATOM      8  C   UNL     1     -12.799  13.718  65.754  0.00  0.00    +0.030 A 
ATOM      9  C   UNL     1     -12.248  13.144  64.628  0.00  0.00    +0.140 A 
ATOM     10  F   UNL     1     -12.839  12.069  64.069  0.00  0.00    -0.204 F 
ATOM     11  C   UNL     1     -11.066  13.696  64.157  0.00  0.00    +0.030 A 
ATOM     12  C   UNL     1     -10.187  14.219  65.097  0.00  0.00    +0.004 A 
ENDBRANCH   3   6
BRANCH   4  13
ATOM     13  C   UNL     1      -9.737  17.387  67.590  0.00  0.00    +0.002 A 
ATOM     14  C   UNL     1     -10.349  17.782  66.406  0.00  0.00    +0.000 A 
ATOM     15  C   UNL     1     -10.361  19.138  66.112  0.00  0.00    +0.000 A 
ATOM     16  C   UNL     1     -10.057  20.060  67.090  0.00  0.00    +0.000 A 
ATOM     17  C   UNL     1      -9.996  19.602  68.389  0.00  0.00    +0.000 A 
ATOM     18  C   UNL     1      -9.922  18.249  68.664  0.00  0.00    +0.000 A 
ENDBRANCH   4  13
BRANCH   1  20
ATOM     19  C   UNL     1      -6.521  13.811  69.295  0.00  0.00    +0.006 C 
ATOM     20  C   UNL     1      -6.528  13.949  69.039  0.00  0.00    +0.038 C 
ATOM     21  C   UNL     1      -5.788  13.267  67.897  0.00  0.00    +0.006 C 
ENDBRANCH   1  20
BRANCH   5  22
ATOM     22  C   UNL     1      -6.647  16.711  67.742  0.00  0.00    +0.270 C 
ATOM     23  N   UNL     1      -6.232  16.754  66.395  0.00  0.00    -0.175 NA
ATOM     24  O   UNL     1      -6.181  17.623  68.494  0.00  0.00    -0.268 OA
BRANCH  23  25
ATOM     25  C   UNL     1      -5.815  17.965  65.779  0.00  0.00    +0.074 A 
ATOM     26  C   UNL     1      -6.788  18.948  65.647  0.00  0.00    +0.017 A 
ATOM     27  C   UNL     1      -6.472  20.065  64.884  0.00  0.00    +0.001 A 
ATOM     28  C   UNL     1      -5.406  20.038  63.994  0.00  0.00    +0.000 A 
ATOM     29  C   UNL     1      -4.435  19.093  64.245  0.00  0.00    +0.001 A 
ATOM     30  C   UNL     1      -4.556  18.182  65.286  0.00  0.00    +0.017 A 
ENDBRANCH  23  25
ENDBRANCH   5  22
BRANCH   2  31
ATOM     31  C   UNL     1      -9.111  12.523  68.045  0.00  0.00    +0.108 C 
BRANCH  31  32
ATOM     32  C   UNL     1     -10.315  12.066  68.822  0.00  0.00    +0.057 C 
BRANCH  32  33
ATOM     33  C   UNL     1     -10.665  10.579  68.194  0.00  0.00    +0.156 C 
ATOM     34  O   UNL     1     -12.072  11.012  67.815  0.00  0.00    -0.223 OA
BRANCH  33  35
ATOM     35  C   UNL     1     -10.074  10.997  66.708  0.00  0.00    +0.066 C 
BRANCH  35  36
ATOM     36  C   UNL     1     -10.060   9.445  66.143  0.00  0.00    +0.166 C 
ATOM     37  O   UNL     1      -9.322   8.945  67.376  0.00  0.00    -0.222 OA
BRANCH  36  38
ATOM     38  C   UNL     1      -8.642   9.681  65.329  0.00  0.00    +0.147 C 
BRANCH  38  39
ATOM     39  C   UNL     1      -9.099   9.466  63.929  0.00  0.00    +0.367 C 
ATOM     40  O   UNL     1      -8.491   8.543  63.103  0.00  0.00    -0.246 OA
ATOM     41  O   UNL     1      -9.887  10.326  63.430  0.00  0.00    -0.246 OA
ENDBRANCH  38  39
ENDBRANCH  36  38
ENDBRANCH  35  36
ENDBRANCH  33  35
ENDBRANCH  32  33
ENDBRANCH  31  32
ENDBRANCH   2  31
TORSDOF 12
ENDMDL
