MODEL 1
REMARK VINA RESULT:      -6.6      0.000      0.000
REMARK  Name = 
REMARK  6 active torsions:
REMARK  status: ('A' for Active; 'I' for Inactive)
REMARK    1  A    between atoms: C_2  and  C_3
REMARK    2  A    between atoms: C_11  and  O_12
REMARK    3  A    between atoms: C_31  and  C_32
REMARK    4  A    between atoms: C_34  and  C_35
REMARK    5  A    between atoms: C_40  and  O_41
REMARK    6  A    between atoms: C_54  and  O_55
REMARK                            x       y       z     vdW  Elec       q    Type
REMARK                         _______ _______ _______ _____ _____    ______ ____
ROOT
ATOM      1  C   UNL     1     -10.897  13.428  66.226  0.00  0.00    +0.079 C 
ATOM      2  C   UNL     1     -10.036  14.793  66.253  0.00  0.00    +0.157 C 
ATOM      3  O   UNL     1     -10.097  15.439  65.216  0.00  0.00    -0.296 OA
ATOM      4  C   UNL     1      -8.780  14.670  67.072  0.00  0.00    +0.098 C 
ATOM      5  C   UNL     1      -9.060  15.853  68.182  0.00  0.00    +0.163 C 
ATOM      6  O   UNL     1      -8.922  16.943  67.142  0.00  0.00    -0.223 OA
ATOM      7  C   UNL     1      -7.480  15.952  68.805  0.00  0.00    +0.075 C 
ATOM      8  C   UNL     1      -7.488  17.551  68.892  0.00  0.00    +0.007 C 
ATOM      9  C   UNL     1      -6.656  15.694  67.341  0.00  0.00    +0.189 C 
ATOM     10  O   UNL     1      -5.270  15.558  67.938  0.00  0.00    -0.447 OA
ATOM     11  C   UNL     1      -4.591  14.452  67.882  0.00  0.00    +0.335 C 
ATOM     12  O   UNL     1      -3.931  13.793  67.086  0.00  0.00    -0.248 OA
ATOM     13  C   UNL     1      -5.141  13.709  69.196  0.00  0.00    +0.175 C 
ATOM     14  N   UNL     1      -3.679  13.321  69.663  0.00  0.00    -0.265 N 
ATOM     15  C   UNL     1      -2.526  13.999  69.185  0.00  0.00    +0.094 C 
ATOM     16  C   UNL     1      -2.682  15.422  69.600  0.00  0.00    +0.022 C 
ATOM     17  C   UNL     1      -3.927  15.731  70.252  0.00  0.00    +0.004 C 
ATOM     18  C   UNL     1      -3.720  12.991  71.065  0.00  0.00    +0.289 C 
ATOM     19  O   UNL     1      -2.767  13.146  71.886  0.00  0.00    -0.267 OA
ATOM     20  C   UNL     1      -5.002  12.298  71.345  0.00  0.00    +0.279 C 
ATOM     21  O   UNL     1      -5.321  12.290  72.580  0.00  0.00    -0.281 OA
ATOM     22  C   UNL     1      -5.278  11.290  70.338  0.00  0.00    +0.279 C 
ATOM     23  C   UNL     1      -5.252  10.064  71.424  0.00  0.00    +0.065 C 
ATOM     24  C   UNL     1      -4.632   8.967  70.388  0.00  0.00    +0.038 C 
ATOM     25  C   UNL     1      -6.128   8.604  69.865  0.00  0.00    +0.145 C 
ATOM     26  C   UNL     1      -6.191   9.978  68.842  0.00  0.00    +0.172 C 
ATOM     27  C   UNL     1      -7.773   9.688  68.239  0.00  0.00    +0.145 C 
ATOM     28  C   UNL     1      -8.657  10.310  69.478  0.00  0.00    +0.032 C 
ATOM     29  C   UNL     1     -10.002  10.052  68.563  0.00  0.00    +0.007 C 
ATOM     30  C   UNL     1     -11.021  10.236  69.818  0.00  0.00    +0.000 C 
ATOM     31  C   UNL     1     -10.012  11.593  68.077  0.00  0.00    +0.022 C 
ATOM     32  C   UNL     1     -11.186  12.326  68.459  0.00  0.00    -0.048 C 
ATOM     33  C   UNL     1     -11.615  12.712  69.857  0.00  0.00    +0.026 C 
ATOM     34  C   UNL     1      -3.775  10.343  72.060  0.00  0.00    +0.006 C 
ATOM     35  O   UNL     1      -4.256  11.016  69.426  0.00  0.00    -0.187 OA
ATOM     36  O   UNL     1      -6.533  10.984  69.908  0.00  0.00    -0.324 OA
ATOM     37  C   UNL     1      -5.134  14.971  70.262  0.00  0.00    +0.031 C 
ATOM     38  C   UNL     1     -11.180  13.507  67.804  0.00  0.00    -0.028 C 
ENDROOT
BRANCH   9  39
ATOM     39  C   UNL     1      -6.387  17.247  66.968  0.00  0.00    -0.009 C 
ATOM     40  C   UNL     1      -5.155  17.625  66.717  0.00  0.00    -0.031 C 
ATOM     41  C   UNL     1      -7.086  17.786  65.747  0.00  0.00    +0.030 C 
BRANCH  40  42
ATOM     42  C   UNL     1      -4.784  19.155  66.973  0.00  0.00    +0.024 C 
ATOM     43  C   UNL     1      -3.859  18.719  68.247  0.00  0.00    +0.035 C 
ATOM     44  C   UNL     1      -3.512  20.157  68.963  0.00  0.00    +0.131 C 
ATOM     45  C   UNL     1      -3.335  21.011  67.509  0.00  0.00    +0.107 C 
ATOM     46 CL   UNL     1      -1.960  22.106  68.098  0.00  0.00    -0.112 Cl
ATOM     47  C   UNL     1      -2.456  19.987  66.687  0.00  0.00    +0.019 C 
ATOM     48  C   UNL     1      -3.501  19.143  65.957  0.00  0.00    +0.006 C 
BRANCH  44  49
ATOM     49  O   UNL     1      -2.041  19.788  69.069  0.00  0.00    -0.352 OA
ATOM     50  C   UNL     1      -1.938  19.042  70.250  0.00  0.00    +0.174 C 
ENDBRANCH  44  49
ENDBRANCH  40  42
ENDBRANCH   9  39
BRANCH   1  52
ATOM     51  C   UNL     1     -12.812  13.652  65.444  0.00  0.00    +0.001 C 
ATOM     52  C   UNL     1     -12.298  14.212  65.890  0.00  0.00    +0.012 C 
ENDBRANCH   1  52
BRANCH  27  53
ATOM     53  O   UNL     1      -7.919   8.256  68.691  0.00  0.00    -0.351 OA
ATOM     54  C   UNL     1      -8.583   7.483  67.812  0.00  0.00    +0.174 C 
ENDBRANCH  27  53
BRANCH  25  55
ATOM     55  O   UNL     1      -5.561   7.771  68.738  0.00  0.00    -0.351 OA
ATOM     56  C   UNL     1      -4.851   6.812  69.441  0.00  0.00    +0.174 C 
ENDBRANCH  25  55
TORSDOF 6
ENDMDL
MODEL 2
REMARK VINA RESULT:      -6.5      1.419      1.623
REMARK  Name = 
REMARK  6 active torsions:
REMARK  status: ('A' for Active; 'I' for Inactive)
REMARK    1  A    between atoms: C_2  and  C_3
REMARK    2  A    between atoms: C_11  and  O_12
REMARK    3  A    between atoms: C_31  and  C_32
REMARK    4  A    between atoms: C_34  and  C_35
REMARK    5  A    between atoms: C_40  and  O_41
REMARK    6  A    between atoms: C_54  and  O_55
REMARK                            x       y       z     vdW  Elec       q    Type
REMARK                         _______ _______ _______ _____ _____    ______ ____
ROOT
ATOM      1  C   UNL     1     -10.928  12.436  65.537  0.00  0.00    +0.079 C 
ATOM      2  C   UNL     1     -10.266  13.873  65.857  0.00  0.00    +0.157 C 
ATOM      3  O   UNL     1     -10.364  14.679  64.942  0.00  0.00    -0.296 OA
ATOM      4  C   UNL     1      -9.049  13.769  66.735  0.00  0.00    +0.098 C 
ATOM      5  C   UNL     1      -9.547  14.692  68.004  0.00  0.00    +0.163 C 
ATOM      6  O   UNL     1      -9.509  15.957  67.176  0.00  0.00    -0.223 OA
ATOM      7  C   UNL     1      -8.030  14.880  68.751  0.00  0.00    +0.075 C 
ATOM      8  C   UNL     1      -8.264  16.424  69.105  0.00  0.00    +0.007 C 
ATOM      9  C   UNL     1      -7.105  14.993  67.329  0.00  0.00    +0.189 C 
ATOM     10  O   UNL     1      -5.745  14.932  67.997  0.00  0.00    -0.447 OA
ATOM     11  C   UNL     1      -4.917  13.949  67.806  0.00  0.00    +0.335 C 
ATOM     12  O   UNL     1      -4.133  13.531  66.961  0.00  0.00    -0.248 OA
ATOM     13  C   UNL     1      -5.425  12.921  68.931  0.00  0.00    +0.175 C 
ATOM     14  N   UNL     1      -3.950  12.647  69.434  0.00  0.00    -0.265 N 
ATOM     15  C   UNL     1      -2.879  13.540  69.164  0.00  0.00    +0.094 C 
ATOM     16  C   UNL     1      -3.252  14.836  69.799  0.00  0.00    +0.022 C 
ATOM     17  C   UNL     1      -4.559  14.863  70.400  0.00  0.00    +0.004 C 
ATOM     18  C   UNL     1      -4.016  12.072  70.754  0.00  0.00    +0.289 C 
ATOM     19  O   UNL     1      -3.136  12.201  71.657  0.00  0.00    -0.267 OA
ATOM     20  C   UNL     1      -5.202  11.183  70.817  0.00  0.00    +0.279 C 
ATOM     21  O   UNL     1      -5.579  10.916  72.006  0.00  0.00    -0.281 OA
ATOM     22  C   UNL     1      -5.283  10.342  69.638  0.00  0.00    +0.279 C 
ATOM     23  C   UNL     1      -5.143   8.957  70.501  0.00  0.00    +0.065 C 
ATOM     24  C   UNL     1      -4.325   8.149  69.344  0.00  0.00    +0.038 C 
ATOM     25  C   UNL     1      -5.727   7.695  68.658  0.00  0.00    +0.145 C 
ATOM     26  C   UNL     1      -5.928   9.208  67.879  0.00  0.00    +0.172 C 
ATOM     27  C   UNL     1      -7.422   8.830  67.119  0.00  0.00    +0.145 C 
ATOM     28  C   UNL     1      -8.445   9.105  68.376  0.00  0.00    +0.032 C 
ATOM     29  C   UNL     1      -9.694   8.843  67.334  0.00  0.00    +0.007 C 
ATOM     30  C   UNL     1     -10.791   8.670  68.523  0.00  0.00    +0.000 C 
ATOM     31  C   UNL     1      -9.892  10.432  67.115  0.00  0.00    +0.022 C 
ATOM     32  C   UNL     1     -11.174  10.929  67.526  0.00  0.00    -0.048 C 
ATOM     33  C   UNL     1     -11.724  11.005  68.933  0.00  0.00    +0.026 C 
ATOM     34  C   UNL     1      -3.754   9.305  71.282  0.00  0.00    +0.006 C 
ATOM     35  O   UNL     1      -4.188  10.366  68.771  0.00  0.00    -0.187 OA
ATOM     36  O   UNL     1      -6.460   9.958  69.070  0.00  0.00    -0.324 OA
ATOM     37  C   UNL     1      -5.648  13.966  70.192  0.00  0.00    +0.031 C 
ATOM     38  C   UNL     1     -11.299  12.198  67.081  0.00  0.00    -0.028 C 
ENDROOT
BRANCH   9  39
ATOM     39  C   UNL     1      -7.035  16.609  67.244  0.00  0.00    -0.009 C 
ATOM     40  C   UNL     1      -5.855  17.184  67.244  0.00  0.00    -0.031 C 
ATOM     41  C   UNL     1      -7.647  17.254  66.028  0.00  0.00    +0.030 C 
BRANCH  40  42
ATOM     42  C   UNL     1      -5.763  18.682  67.785  0.00  0.00    +0.024 C 
ATOM     43  C   UNL     1      -5.743  18.127  69.321  0.00  0.00    +0.035 C 
ATOM     44  C   UNL     1      -5.937  19.495  70.211  0.00  0.00    +0.131 C 
ATOM     45  C   UNL     1      -4.974  20.466  69.209  0.00  0.00    +0.107 C 
ATOM     46 CL   UNL     1      -4.247  21.487  70.574  0.00  0.00    -0.112 Cl
ATOM     47  C   UNL     1      -3.741  19.502  68.984  0.00  0.00    +0.019 C 
ATOM     48  C   UNL     1      -4.128  18.737  67.718  0.00  0.00    +0.006 C 
BRANCH  44  49
ATOM     49  O   UNL     1      -4.794  19.097  71.132  0.00  0.00    -0.352 OA
ATOM     50  C   UNL     1      -5.200  17.891  71.716  0.00  0.00    +0.174 C 
ENDBRANCH  44  49
ENDBRANCH  40  42
ENDBRANCH   9  39
BRANCH   1  52
ATOM     51  C   UNL     1     -12.791  12.580  64.622  0.00  0.00    +0.001 C 
ATOM     52  C   UNL     1     -12.405  13.081  65.235  0.00  0.00    +0.012 C 
ENDBRANCH   1  52
BRANCH  27  53
ATOM     53  O   UNL     1      -7.391   7.334  67.312  0.00  0.00    -0.351 OA
ATOM     54  C   UNL     1      -7.907   6.650  66.275  0.00  0.00    +0.174 C 
ENDBRANCH  27  53
BRANCH  25  55
ATOM     55  O   UNL     1      -4.993   7.154  67.452  0.00  0.00    -0.351 OA
ATOM     56  C   UNL     1      -4.189   6.189  68.035  0.00  0.00    +0.174 C 
ENDBRANCH  25  55
TORSDOF 6
ENDMDL
MODEL 3
REMARK VINA RESULT:      -6.3      6.114     10.331
REMARK  Name = 
REMARK  6 active torsions:
REMARK  status: ('A' for Active; 'I' for Inactive)
REMARK    1  A    between atoms: C_2  and  C_3
REMARK    2  A    between atoms: C_11  and  O_12
REMARK    3  A    between atoms: C_31  and  C_32
REMARK    4  A    between atoms: C_34  and  C_35
REMARK    5  A    between atoms: C_40  and  O_41
REMARK    6  A    between atoms: C_54  and  O_55
REMARK                            x       y       z     vdW  Elec       q    Type
REMARK                         _______ _______ _______ _____ _____    ______ ____
ROOT
ATOM      1  C   UNL     1      -7.235   1.763  66.603  0.00  0.00    +0.079 C 
ATOM      2  C   UNL     1      -7.768   3.220  66.155  0.00  0.00    +0.157 C 
ATOM      3  O   UNL     1      -7.165   3.699  65.204  0.00  0.00    -0.296 OA
ATOM      4  C   UNL     1      -8.255   4.042  67.317  0.00  0.00    +0.098 C 
ATOM      5  C   UNL     1      -9.812   4.290  66.843  0.00  0.00    +0.163 C 
ATOM      6  O   UNL     1      -9.383   5.178  65.696  0.00  0.00    -0.223 OA
ATOM      7  C   UNL     1     -10.184   5.532  67.946  0.00  0.00    +0.075 C 
ATOM      8  C   UNL     1     -10.999   6.399  66.874  0.00  0.00    +0.007 C 
ATOM      9  C   UNL     1      -8.668   6.299  67.924  0.00  0.00    +0.189 C 
ATOM     10  O   UNL     1      -8.936   7.256  69.068  0.00  0.00    -0.447 OA
ATOM     11  C   UNL     1      -8.283   7.204  70.190  0.00  0.00    +0.335 C 
ATOM     12  O   UNL     1      -7.189   7.505  70.656  0.00  0.00    -0.248 OA
ATOM     13  C   UNL     1      -9.168   6.128  70.990  0.00  0.00    +0.175 C 
ATOM     14  N   UNL     1      -9.196   7.028  72.292  0.00  0.00    -0.265 N 
ATOM     15  C   UNL     1      -8.929   8.423  72.255  0.00  0.00    +0.094 C 
ATOM     16  C   UNL     1      -9.970   9.019  71.370  0.00  0.00    +0.022 C 
ATOM     17  C   UNL     1     -10.857   8.069  70.752  0.00  0.00    +0.004 C 
ATOM     18  C   UNL     1     -10.279   6.582  73.132  0.00  0.00    +0.289 C 
ATOM     19  O   UNL     1     -10.937   7.312  73.932  0.00  0.00    -0.267 OA
ATOM     20  C   UNL     1     -10.383   5.107  73.017  0.00  0.00    +0.279 C 
ATOM     21  O   UNL     1     -11.506   4.641  73.403  0.00  0.00    -0.281 OA
ATOM     22  C   UNL     1      -9.074   4.486  73.104  0.00  0.00    +0.279 C 
ATOM     23  C   UNL     1      -9.457   3.649  74.458  0.00  0.00    +0.065 C 
ATOM     24  C   UNL     1      -7.958   3.713  75.097  0.00  0.00    +0.038 C 
ATOM     25  C   UNL     1      -7.540   2.377  74.270  0.00  0.00    +0.145 C 
ATOM     26  C   UNL     1      -7.285   3.256  72.821  0.00  0.00    +0.172 C 
ATOM     27  C   UNL     1      -6.842   1.904  71.858  0.00  0.00    +0.145 C 
ATOM     28  C   UNL     1      -8.338   1.327  71.493  0.00  0.00    +0.032 C 
ATOM     29  C   UNL     1      -7.604   0.236  70.500  0.00  0.00    +0.007 C 
ATOM     30  C   UNL     1      -8.930  -0.697  70.369  0.00  0.00    +0.000 C 
ATOM     31  C   UNL     1      -7.890   1.164  69.209  0.00  0.00    +0.022 C 
ATOM     32  C   UNL     1      -8.725   0.552  68.214  0.00  0.00    -0.048 C 
ATOM     33  C   UNL     1     -10.188   0.189  68.338  0.00  0.00    +0.026 C 
ATOM     34  C   UNL     1      -9.938   4.904  75.384  0.00  0.00    +0.006 C 
ATOM     35  O   UNL     1      -8.006   5.315  73.455  0.00  0.00    -0.187 OA
ATOM     36  O   UNL     1      -8.731   3.363  72.415  0.00  0.00    -0.324 OA
ATOM     37  C   UNL     1     -10.684   6.661  70.603  0.00  0.00    +0.031 C 
ATOM     38  C   UNL     1      -8.694   1.320  67.104  0.00  0.00    -0.028 C 
ENDROOT
BRANCH   9  39
ATOM     39  C   UNL     1      -9.019   7.442  66.832  0.00  0.00    -0.009 C 
ATOM     40  C   UNL     1      -8.978   8.699  67.209  0.00  0.00    -0.031 C 
ATOM     41  C   UNL     1      -8.148   7.502  65.604  0.00  0.00    +0.030 C 
BRANCH  40  42
ATOM     42  C   UNL     1      -9.886   9.740  66.410  0.00  0.00    +0.024 C 
ATOM     43  C   UNL     1     -10.448  10.335  67.824  0.00  0.00    +0.035 C 
ATOM     44  C   UNL     1     -11.687  11.305  67.350  0.00  0.00    +0.131 C 
ATOM     45  C   UNL     1     -10.907  11.882  65.960  0.00  0.00    +0.107 C 
ATOM     46 CL   UNL     1     -11.592  13.601  66.055  0.00  0.00    -0.112 Cl
ATOM     47  C   UNL     1      -9.473  12.190  66.551  0.00  0.00    +0.019 C 
ATOM     48  C   UNL     1      -8.717  10.882  66.323  0.00  0.00    +0.006 C 
BRANCH  44  49
ATOM     49  O   UNL     1     -11.193  12.431  68.245  0.00  0.00    -0.352 OA
ATOM     50  C   UNL     1     -11.688  12.126  69.519  0.00  0.00    +0.174 C 
ENDBRANCH  44  49
ENDBRANCH  40  42
ENDBRANCH   9  39
BRANCH   1  52
ATOM     51  C   UNL     1      -7.047   0.355  65.083  0.00  0.00    +0.001 C 
ATOM     52  C   UNL     1      -7.497   1.112  65.121  0.00  0.00    +0.012 C 
ENDBRANCH   1  52
BRANCH  27  53
ATOM     53  O   UNL     1      -6.599   0.915  72.972  0.00  0.00    -0.351 OA
ATOM     54  C   UNL     1      -5.539   0.115  72.755  0.00  0.00    +0.174 C 
ENDBRANCH  27  53
BRANCH  25  55
ATOM     55  O   UNL     1      -6.089   2.561  74.655  0.00  0.00    -0.351 OA
ATOM     56  C   UNL     1      -6.167   2.508  76.037  0.00  0.00    +0.174 C 
ENDBRANCH  25  55
TORSDOF 6
ENDMDL
MODEL 4
REMARK VINA RESULT:      -6.0      5.620      8.614
REMARK  Name = 
REMARK  6 active torsions:
REMARK  status: ('A' for Active; 'I' for Inactive)
REMARK    1  A    between atoms: C_2  and  C_3
REMARK    2  A    between atoms: C_11  and  O_12
REMARK    3  A    between atoms: C_31  and  C_32
REMARK    4  A    between atoms: C_34  and  C_35
REMARK    5  A    between atoms: C_40  and  O_41
REMARK    6  A    between atoms: C_54  and  O_55
REMARK                            x       y       z     vdW  Elec       q    Type
REMARK                         _______ _______ _______ _____ _____    ______ ____
ROOT
ATOM      1  C   UNL     1     -12.118  12.407  64.956  0.00  0.00    +0.079 C 
ATOM      2  C   UNL     1     -11.160  11.644  63.904  0.00  0.00    +0.157 C 
ATOM      3  O   UNL     1     -11.697  11.391  62.835  0.00  0.00    -0.296 OA
ATOM      4  C   UNL     1     -10.187  10.714  64.576  0.00  0.00    +0.098 C 
ATOM      5  C   UNL     1      -8.772  11.372  64.053  0.00  0.00    +0.163 C 
ATOM      6  O   UNL     1      -9.031  10.943  62.626  0.00  0.00    -0.223 OA
ATOM      7  C   UNL     1      -7.753  10.078  64.482  0.00  0.00    +0.075 C 
ATOM      8  C   UNL     1      -6.882  10.165  63.141  0.00  0.00    +0.007 C 
ATOM      9  C   UNL     1      -8.834   8.822  64.106  0.00  0.00    +0.189 C 
ATOM     10  O   UNL     1      -8.010   7.696  64.700  0.00  0.00    -0.447 OA
ATOM     11  C   UNL     1      -8.413   6.999  65.720  0.00  0.00    +0.335 C 
ATOM     12  O   UNL     1      -9.199   6.099  65.993  0.00  0.00    -0.248 OA
ATOM     13  C   UNL     1      -7.877   7.917  66.925  0.00  0.00    +0.175 C 
ATOM     14  N   UNL     1      -7.264   6.670  67.683  0.00  0.00    -0.265 N 
ATOM     15  C   UNL     1      -6.976   5.447  67.021  0.00  0.00    +0.094 C 
ATOM     16  C   UNL     1      -5.970   5.773  65.970  0.00  0.00    +0.022 C 
ATOM     17  C   UNL     1      -5.648   7.170  65.852  0.00  0.00    +0.004 C 
ATOM     18  C   UNL     1      -6.300   7.147  68.642  0.00  0.00    +0.289 C 
ATOM     19  O   UNL     1      -5.275   6.512  69.033  0.00  0.00    -0.267 OA
ATOM     20  C   UNL     1      -6.794   8.428  69.204  0.00  0.00    +0.279 C 
ATOM     21  O   UNL     1      -5.886   9.125  69.766  0.00  0.00    -0.281 OA
ATOM     22  C   UNL     1      -8.200   8.335  69.551  0.00  0.00    +0.279 C 
ATOM     23  C   UNL     1      -7.923   8.618  71.140  0.00  0.00    +0.065 C 
ATOM     24  C   UNL     1      -9.136   7.665  71.670  0.00  0.00    +0.038 C 
ATOM     25  C   UNL     1     -10.181   8.902  71.530  0.00  0.00    +0.145 C 
ATOM     26  C   UNL     1     -10.343   8.678  69.838  0.00  0.00    +0.172 C 
ATOM     27  C   UNL     1     -11.442   9.974  69.583  0.00  0.00    +0.145 C 
ATOM     28  C   UNL     1     -10.380  11.227  69.527  0.00  0.00    +0.032 C 
ATOM     29  C   UNL     1     -11.647  12.200  69.126  0.00  0.00    +0.007 C 
ATOM     30  C   UNL     1     -10.831  13.573  69.438  0.00  0.00    +0.000 C 
ATOM     31  C   UNL     1     -11.272  12.103  67.557  0.00  0.00    +0.022 C 
ATOM     32  C   UNL     1     -10.937  13.360  66.951  0.00  0.00    -0.048 C 
ATOM     33  C   UNL     1      -9.731  14.227  67.236  0.00  0.00    +0.026 C 
ATOM     34  C   UNL     1      -6.834   7.433  71.406  0.00  0.00    +0.006 C 
ATOM     35  O   UNL     1      -8.782   7.066  69.483  0.00  0.00    -0.187 OA
ATOM     36  O   UNL     1      -9.070   9.376  69.439  0.00  0.00    -0.324 OA
ATOM     37  C   UNL     1      -6.373   8.292  66.351  0.00  0.00    +0.031 C 
ATOM     38  C   UNL     1     -10.876  13.183  65.614  0.00  0.00    -0.028 C 
ENDROOT
BRANCH   9  39
ATOM     39  C   UNL     1      -8.279   8.497  62.620  0.00  0.00    -0.009 C 
ATOM     40  C   UNL     1      -7.743   7.320  62.396  0.00  0.00    -0.031 C 
ATOM     41  C   UNL     1      -9.278   8.554  61.492  0.00  0.00    +0.030 C 
BRANCH  40  42
ATOM     42  C   UNL     1      -6.673   7.207  61.218  0.00  0.00    +0.024 C 
ATOM     43  C   UNL     1      -5.520   6.802  62.303  0.00  0.00    +0.035 C 
ATOM     44  C   UNL     1      -4.137   6.879  61.419  0.00  0.00    +0.131 C 
ATOM     45  C   UNL     1      -4.822   6.236  60.008  0.00  0.00    +0.107 C 
ATOM     46 CL   UNL     1      -3.320   5.288  59.481  0.00  0.00    -0.112 Cl
ATOM     47  C   UNL     1      -5.636   5.026  60.617  0.00  0.00    +0.019 C 
ATOM     48  C   UNL     1      -7.009   5.638  60.896  0.00  0.00    +0.006 C 
BRANCH  44  49
ATOM     49  O   UNL     1      -3.678   5.532  61.958  0.00  0.00    -0.352 OA
ATOM     50  C   UNL     1      -3.125   5.812  63.213  0.00  0.00    +0.174 C 
ENDBRANCH  44  49
ENDBRANCH  40  42
ENDBRANCH   9  39
BRANCH   1  52
ATOM     51  C   UNL     1     -12.398  14.394  64.402  0.00  0.00    +0.001 C 
ATOM     52  C   UNL     1     -12.407  13.652  63.927  0.00  0.00    +0.012 C 
ENDBRANCH   1  52
BRANCH  27  53
ATOM     53  O   UNL     1     -11.835  10.211  71.020  0.00  0.00    -0.351 OA
ATOM     54  C   UNL     1     -13.155  10.417  71.188  0.00  0.00    +0.174 C 
ENDBRANCH  27  53
BRANCH  25  55
ATOM     55  O   UNL     1     -11.351   7.977  71.780  0.00  0.00    -0.351 OA
ATOM     56  C   UNL     1     -11.001   7.421  72.999  0.00  0.00    +0.174 C 
ENDBRANCH  25  55
TORSDOF 6
ENDMDL
MODEL 5
REMARK VINA RESULT:      -5.9      5.753     10.147
REMARK  Name = 
REMARK  6 active torsions:
REMARK  status: ('A' for Active; 'I' for Inactive)
REMARK    1  A    between atoms: C_2  and  C_3
REMARK    2  A    between atoms: C_11  and  O_12
REMARK    3  A    between atoms: C_31  and  C_32
REMARK    4  A    between atoms: C_34  and  C_35
REMARK    5  A    between atoms: C_40  and  O_41
REMARK    6  A    between atoms: C_54  and  O_55
REMARK                            x       y       z     vdW  Elec       q    Type
REMARK                         _______ _______ _______ _____ _____    ______ ____
ROOT
ATOM      1  C   UNL     1      -9.991   5.131  74.349  0.00  0.00    +0.079 C 
ATOM      2  C   UNL     1     -10.039   6.560  73.599  0.00  0.00    +0.157 C 
ATOM      3  O   UNL     1     -10.926   7.302  74.000  0.00  0.00    -0.296 OA
ATOM      4  C   UNL     1      -9.634   6.470  72.153  0.00  0.00    +0.098 C 
ATOM      5  C   UNL     1      -8.351   7.501  72.164  0.00  0.00    +0.163 C 
ATOM      6  O   UNL     1      -9.241   8.700  72.401  0.00  0.00    -0.223 OA
ATOM      7  C   UNL     1      -8.196   7.680  70.479  0.00  0.00    +0.075 C 
ATOM      8  C   UNL     1      -7.910   9.254  70.554  0.00  0.00    +0.007 C 
ATOM      9  C   UNL     1      -9.855   7.653  70.108  0.00  0.00    +0.189 C 
ATOM     10  O   UNL     1      -9.700   7.585  68.602  0.00  0.00    -0.447 OA
ATOM     11  C   UNL     1     -10.086   6.558  67.906  0.00  0.00    +0.335 C 
ATOM     12  O   UNL     1     -11.113   6.049  67.472  0.00  0.00    -0.248 OA
ATOM     13  C   UNL     1      -8.774   5.635  68.001  0.00  0.00    +0.175 C 
ATOM     14  N   UNL     1      -8.796   5.338  66.447  0.00  0.00    -0.265 N 
ATOM     15  C   UNL     1      -9.493   6.165  65.526  0.00  0.00    +0.094 C 
ATOM     16  C   UNL     1      -8.875   7.518  65.637  0.00  0.00    +0.022 C 
ATOM     17  C   UNL     1      -7.862   7.641  66.651  0.00  0.00    +0.004 C 
ATOM     18  C   UNL     1      -7.493   4.863  66.054  0.00  0.00    +0.289 C 
ATOM     19  O   UNL     1      -6.965   5.020  64.913  0.00  0.00    -0.267 OA
ATOM     20  C   UNL     1      -6.948   4.029  67.155  0.00  0.00    +0.279 C 
ATOM     21  O   UNL     1      -5.685   3.864  67.095  0.00  0.00    -0.281 OA
ATOM     22  C   UNL     1      -7.953   3.109  67.655  0.00  0.00    +0.279 C 
ATOM     23  C   UNL     1      -7.083   1.786  67.239  0.00  0.00    +0.065 C 
ATOM     24  C   UNL     1      -8.382   0.864  66.888  0.00  0.00    +0.038 C 
ATOM     25  C   UNL     1      -8.499   0.419  68.448  0.00  0.00    +0.145 C 
ATOM     26  C   UNL     1      -9.280   1.880  68.889  0.00  0.00    +0.172 C 
ATOM     27  C   UNL     1      -9.439   1.509  70.559  0.00  0.00    +0.145 C 
ATOM     28  C   UNL     1      -7.932   1.915  71.074  0.00  0.00    +0.032 C 
ATOM     29  C   UNL     1      -8.449   1.629  72.611  0.00  0.00    +0.007 C 
ATOM     30  C   UNL     1      -6.943   1.588  73.225  0.00  0.00    +0.000 C 
ATOM     31  C   UNL     1      -8.715   3.205  72.853  0.00  0.00    +0.022 C 
ATOM     32  C   UNL     1      -7.925   3.783  73.904  0.00  0.00    -0.048 C 
ATOM     33  C   UNL     1      -6.426   3.981  73.926  0.00  0.00    +0.026 C 
ATOM     34  C   UNL     1      -6.865   2.132  65.660  0.00  0.00    +0.006 C 
ATOM     35  O   UNL     1      -9.146   3.027  66.932  0.00  0.00    -0.187 OA
ATOM     36  O   UNL     1      -8.043   2.734  68.961  0.00  0.00    -0.324 OA
ATOM     37  C   UNL     1      -7.604   6.776  67.755  0.00  0.00    +0.031 C 
ATOM     38  C   UNL     1      -8.401   5.020  74.160  0.00  0.00    -0.028 C 
ENDROOT
BRANCH   9  39
ATOM     39  C   UNL     1     -10.090   9.254  70.052  0.00  0.00    -0.009 C 
ATOM     40  C   UNL     1     -10.496   9.787  68.922  0.00  0.00    -0.031 C 
ATOM     41  C   UNL     1     -11.113   9.827  70.999  0.00  0.00    +0.030 C 
BRANCH  40  42
ATOM     42  C   UNL     1     -10.134  11.317  68.655  0.00  0.00    +0.024 C 
ATOM     43  C   UNL     1      -9.911  10.989  67.070  0.00  0.00    +0.035 C 
ATOM     44  C   UNL     1      -9.225  12.369  66.499  0.00  0.00    +0.131 C 
ATOM     45  C   UNL     1     -10.164  13.411  67.450  0.00  0.00    +0.107 C 
ATOM     46 CL   UNL     1     -10.313  14.749  66.178  0.00  0.00    -0.112 Cl
ATOM     47  C   UNL     1     -11.592  12.764  67.249  0.00  0.00    +0.019 C 
ATOM     48  C   UNL     1     -11.687  11.769  68.406  0.00  0.00    +0.006 C 
BRANCH  44  49
ATOM     49  O   UNL     1     -10.177  12.392  65.314  0.00  0.00    -0.352 OA
ATOM     50  C   UNL     1      -9.814  11.286  64.534  0.00  0.00    +0.174 C 
ENDBRANCH  44  49
ENDBRANCH  40  42
ENDBRANCH   9  39
BRANCH   1  52
ATOM     51  C   UNL     1      -9.812   5.159  76.422  0.00  0.00    +0.001 C 
ATOM     52  C   UNL     1      -9.812   5.812  75.830  0.00  0.00    +0.012 C 
ENDBRANCH   1  52
BRANCH  27  53
ATOM     53  O   UNL     1      -9.148   0.031  70.481  0.00  0.00    -0.351 OA
ATOM     54  C   UNL     1      -9.906  -0.708  71.312  0.00  0.00    +0.174 C 
ENDBRANCH  27  53
BRANCH  25  55
ATOM     55  O   UNL     1      -9.836  -0.236  68.189  0.00  0.00    -0.351 OA
ATOM     56  C   UNL     1      -9.502  -1.156  67.208  0.00  0.00    +0.174 C 
ENDBRANCH  25  55
TORSDOF 6
ENDMDL
MODEL 6
REMARK VINA RESULT:      -5.9      6.807     10.601
REMARK  Name = 
REMARK  6 active torsions:
REMARK  status: ('A' for Active; 'I' for Inactive)
REMARK    1  A    between atoms: C_2  and  C_3
REMARK    2  A    between atoms: C_11  and  O_12
REMARK    3  A    between atoms: C_31  and  C_32
REMARK    4  A    between atoms: C_34  and  C_35
REMARK    5  A    between atoms: C_40  and  O_41
REMARK    6  A    between atoms: C_54  and  O_55
REMARK                            x       y       z     vdW  Elec       q    Type
REMARK                         _______ _______ _______ _____ _____    ______ ____
ROOT
ATOM      1  C   UNL     1      -6.482   0.785  68.380  0.00  0.00    +0.079 C 
ATOM      2  C   UNL     1      -6.342   1.889  67.210  0.00  0.00    +0.157 C 
ATOM      3  O   UNL     1      -5.277   1.843  66.608  0.00  0.00    -0.296 OA
ATOM      4  C   UNL     1      -7.044   3.178  67.542  0.00  0.00    +0.098 C 
ATOM      5  C   UNL     1      -8.100   3.247  66.281  0.00  0.00    +0.163 C 
ATOM      6  O   UNL     1      -6.986   3.480  65.284  0.00  0.00    -0.223 OA
ATOM      7  C   UNL     1      -8.562   4.874  66.467  0.00  0.00    +0.075 C 
ATOM      8  C   UNL     1      -8.551   5.180  64.896  0.00  0.00    +0.007 C 
ATOM      9  C   UNL     1      -7.045   5.474  66.943  0.00  0.00    +0.189 C 
ATOM     10  O   UNL     1      -7.514   6.864  67.322  0.00  0.00    -0.447 OA
ATOM     11  C   UNL     1      -7.462   7.310  68.541  0.00  0.00    +0.335 C 
ATOM     12  O   UNL     1      -6.649   7.744  69.350  0.00  0.00    -0.248 OA
ATOM     13  C   UNL     1      -8.866   6.770  69.107  0.00  0.00    +0.175 C 
ATOM     14  N   UNL     1      -9.214   8.172  69.753  0.00  0.00    -0.265 N 
ATOM     15  C   UNL     1      -8.588   9.377  69.335  0.00  0.00    +0.094 C 
ATOM     16  C   UNL     1      -8.927   9.540  67.893  0.00  0.00    +0.022 C 
ATOM     17  C   UNL     1      -9.674   8.452  67.319  0.00  0.00    +0.004 C 
ATOM     18  C   UNL     1     -10.632   8.218  70.009  0.00  0.00    +0.289 C 
ATOM     19  O   UNL     1     -11.347   9.264  70.009  0.00  0.00    -0.267 OA
ATOM     20  C   UNL     1     -11.075   6.864  70.425  0.00  0.00    +0.279 C 
ATOM     21  O   UNL     1     -12.333   6.682  70.319  0.00  0.00    -0.281 OA
ATOM     22  C   UNL     1     -10.164   6.297  71.401  0.00  0.00    +0.279 C 
ATOM     23  C   UNL     1     -11.316   6.203  72.561  0.00  0.00    +0.065 C 
ATOM     24  C   UNL     1     -10.295   6.489  73.801  0.00  0.00    +0.038 C 
ATOM     25  C   UNL     1      -9.941   4.905  73.887  0.00  0.00    +0.145 C 
ATOM     26  C   UNL     1      -8.845   4.998  72.571  0.00  0.00    +0.172 C 
ATOM     27  C   UNL     1      -8.415   3.334  72.570  0.00  0.00    +0.145 C 
ATOM     28  C   UNL     1      -9.691   2.722  71.736  0.00  0.00    +0.032 C 
ATOM     29  C   UNL     1      -8.927   1.262  71.764  0.00  0.00    +0.007 C 
ATOM     30  C   UNL     1     -10.260   0.435  71.331  0.00  0.00    +0.000 C 
ATOM     31  C   UNL     1      -8.350   1.495  70.273  0.00  0.00    +0.022 C 
ATOM     32  C   UNL     1      -8.796   0.530  69.308  0.00  0.00    -0.048 C 
ATOM     33  C   UNL     1     -10.202   0.331  68.787  0.00  0.00    +0.026 C 
ATOM     34  C   UNL     1     -11.789   7.764  72.551  0.00  0.00    +0.006 C 
ATOM     35  O   UNL     1      -9.177   7.145  71.908  0.00  0.00    -0.187 OA
ATOM     36  O   UNL     1      -9.875   4.968  71.474  0.00  0.00    -0.324 OA
ATOM     37  C   UNL     1      -9.847   7.130  67.826  0.00  0.00    +0.031 C 
ATOM     38  C   UNL     1      -8.072   0.691  68.181  0.00  0.00    -0.028 C 
ENDROOT
BRANCH   9  39
ATOM     39  C   UNL     1      -6.553   5.993  65.490  0.00  0.00    -0.009 C 
ATOM     40  C   UNL     1      -6.425   7.286  65.299  0.00  0.00    -0.031 C 
ATOM     41  C   UNL     1      -5.203   5.519  65.017  0.00  0.00    +0.030 C 
BRANCH  40  42
ATOM     42  C   UNL     1      -6.569   7.830  63.806  0.00  0.00    +0.024 C 
ATOM     43  C   UNL     1      -7.901   8.670  64.239  0.00  0.00    +0.035 C 
ATOM     44  C   UNL     1      -8.510   9.170  62.797  0.00  0.00    +0.131 C 
ATOM     45  C   UNL     1      -6.999   9.478  62.093  0.00  0.00    +0.107 C 
ATOM     46 CL   UNL     1      -7.539  10.960  61.121  0.00  0.00    -0.112 Cl
ATOM     47  C   UNL     1      -6.288  10.246  63.278  0.00  0.00    +0.019 C 
ATOM     48  C   UNL     1      -5.597   9.124  64.052  0.00  0.00    +0.006 C 
BRANCH  44  49
ATOM     49  O   UNL     1      -8.690  10.585  63.325  0.00  0.00    -0.352 OA
ATOM     50  C   UNL     1      -9.944  10.584  63.947  0.00  0.00    +0.174 C 
ENDBRANCH  44  49
ENDBRANCH  40  42
ENDBRANCH   9  39
BRANCH   1  52
ATOM     51  C   UNL     1      -6.030  -1.173  67.840  0.00  0.00    +0.001 C 
ATOM     52  C   UNL     1      -6.234  -0.468  67.352  0.00  0.00    +0.012 C 
ENDBRANCH   1  52
BRANCH  27  53
ATOM     53  O   UNL     1      -8.966   2.967  73.926  0.00  0.00    -0.351 OA
ATOM     54  C   UNL     1      -8.195   2.092  74.598  0.00  0.00    +0.174 C 
ENDBRANCH  27  53
BRANCH  25  55
ATOM     55  O   UNL     1      -8.818   5.181  74.861  0.00  0.00    -0.351 OA
ATOM     56  C   UNL     1      -9.514   5.718  75.931  0.00  0.00    +0.174 C 
ENDBRANCH  25  55
TORSDOF 6
ENDMDL
MODEL 7
REMARK VINA RESULT:      -5.8      6.721     11.913
REMARK  Name = 
REMARK  6 active torsions:
REMARK  status: ('A' for Active; 'I' for Inactive)
REMARK    1  A    between atoms: C_2  and  C_3
REMARK    2  A    between atoms: C_11  and  O_12
REMARK    3  A    between atoms: C_31  and  C_32
REMARK    4  A    between atoms: C_34  and  C_35
REMARK    5  A    between atoms: C_40  and  O_41
REMARK    6  A    between atoms: C_54  and  O_55
REMARK                            x       y       z     vdW  Elec       q    Type
REMARK                         _______ _______ _______ _____ _____    ______ ____
ROOT
ATOM      1  C   UNL     1      -5.638   4.855  63.935  0.00  0.00    +0.079 C 
ATOM      2  C   UNL     1      -5.960   4.036  65.289  0.00  0.00    +0.157 C 
ATOM      3  O   UNL     1      -6.119   2.835  65.117  0.00  0.00    -0.296 OA
ATOM      4  C   UNL     1      -6.765   4.838  66.275  0.00  0.00    +0.098 C 
ATOM      5  C   UNL     1      -5.725   4.826  67.551  0.00  0.00    +0.163 C 
ATOM      6  O   UNL     1      -5.923   3.343  67.773  0.00  0.00    -0.223 OA
ATOM      7  C   UNL     1      -6.821   5.367  68.735  0.00  0.00    +0.075 C 
ATOM      8  C   UNL     1      -6.293   4.351  69.855  0.00  0.00    +0.007 C 
ATOM      9  C   UNL     1      -8.190   4.547  68.149  0.00  0.00    +0.189 C 
ATOM     10  O   UNL     1      -9.199   5.209  69.067  0.00  0.00    -0.447 OA
ATOM     11  C   UNL     1     -10.147   5.979  68.623  0.00  0.00    +0.335 C 
ATOM     12  O   UNL     1     -11.233   5.904  68.058  0.00  0.00    -0.248 OA
ATOM     13  C   UNL     1      -9.378   7.390  68.585  0.00  0.00    +0.175 C 
ATOM     14  N   UNL     1     -10.581   8.133  69.297  0.00  0.00    -0.265 N 
ATOM     15  C   UNL     1     -11.563   7.436  70.050  0.00  0.00    +0.094 C 
ATOM     16  C   UNL     1     -10.832   6.764  71.162  0.00  0.00    +0.022 C 
ATOM     17  C   UNL     1      -9.401   6.915  71.125  0.00  0.00    +0.004 C 
ATOM     18  C   UNL     1     -10.094   9.378  69.835  0.00  0.00    +0.289 C 
ATOM     19  O   UNL     1     -10.551   9.965  70.861  0.00  0.00    -0.267 OA
ATOM     20  C   UNL     1      -9.082   9.928  68.899  0.00  0.00    +0.279 C 
ATOM     21  O   UNL     1      -8.322  10.806  69.425  0.00  0.00    -0.281 OA
ATOM     22  C   UNL     1      -9.545   9.844  67.527  0.00  0.00    +0.279 C 
ATOM     23  C   UNL     1      -9.513  11.468  67.318  0.00  0.00    +0.065 C 
ATOM     24  C   UNL     1     -10.792  11.509  66.307  0.00  0.00    +0.038 C 
ATOM     25  C   UNL     1      -9.811  11.229  65.041  0.00  0.00    +0.145 C 
ATOM     26  C   UNL     1      -9.741   9.547  65.366  0.00  0.00    +0.172 C 
ATOM     27  C   UNL     1      -8.694   9.149  64.064  0.00  0.00    +0.145 C 
ATOM     28  C   UNL     1      -7.251   9.552  64.740  0.00  0.00    +0.032 C 
ATOM     29  C   UNL     1      -6.521   8.928  63.401  0.00  0.00    +0.007 C 
ATOM     30  C   UNL     1      -5.087   9.626  63.726  0.00  0.00    +0.000 C 
ATOM     31  C   UNL     1      -6.236   7.532  64.163  0.00  0.00    +0.022 C 
ATOM     32  C   UNL     1      -4.844   7.205  64.295  0.00  0.00    -0.048 C 
ATOM     33  C   UNL     1      -3.804   7.926  65.123  0.00  0.00    +0.026 C 
ATOM     34  C   UNL     1     -10.460  11.887  68.580  0.00  0.00    +0.006 C 
ATOM     35  O   UNL     1     -10.874   9.459  67.333  0.00  0.00    -0.187 OA
ATOM     36  O   UNL     1      -8.719   9.616  66.469  0.00  0.00    -0.324 OA
ATOM     37  C   UNL     1      -8.581   7.319  70.031  0.00  0.00    +0.031 C 
ATOM     38  C   UNL     1      -4.748   5.930  64.728  0.00  0.00    -0.028 C 
ENDROOT
BRANCH   9  39
ATOM     39  C   UNL     1      -8.098   3.253  69.118  0.00  0.00    -0.009 C 
ATOM     40  C   UNL     1      -9.048   3.068  70.005  0.00  0.00    -0.031 C 
ATOM     41  C   UNL     1      -8.088   1.901  68.451  0.00  0.00    +0.030 C 
BRANCH  40  42
ATOM     42  C   UNL     1      -8.683   2.236  71.317  0.00  0.00    +0.024 C 
ATOM     43  C   UNL     1      -9.345   3.406  72.245  0.00  0.00    +0.035 C 
ATOM     44  C   UNL     1      -8.878   2.983  73.763  0.00  0.00    +0.131 C 
ATOM     45  C   UNL     1      -9.058   1.316  73.518  0.00  0.00    +0.107 C 
ATOM     46 CL   UNL     1      -9.665   0.936  75.227  0.00  0.00    -0.112 Cl
ATOM     47  C   UNL     1     -10.457   1.289  72.783  0.00  0.00    +0.019 C 
ATOM     48  C   UNL     1     -10.073   1.372  71.306  0.00  0.00    +0.006 C 
BRANCH  44  49
ATOM     49  O   UNL     1     -10.291   3.184  74.289  0.00  0.00    -0.352 OA
ATOM     50  C   UNL     1     -10.451   4.572  74.381  0.00  0.00    +0.174 C 
ENDBRANCH  44  49
ENDBRANCH  40  42
ENDBRANCH   9  39
BRANCH   1  52
ATOM     51  C   UNL     1      -4.125   4.071  62.741  0.00  0.00    +0.001 C 
ATOM     52  C   UNL     1      -4.316   3.947  63.592  0.00  0.00    +0.012 C 
ENDBRANCH   1  52
BRANCH  27  53
ATOM     53  O   UNL     1      -8.824  10.432  63.280  0.00  0.00    -0.351 OA
ATOM     54  C   UNL     1      -8.843  10.246  61.948  0.00  0.00    +0.174 C 
ENDBRANCH  27  53
BRANCH  25  55
ATOM     55  O   UNL     1     -11.000  11.019  64.131  0.00  0.00    -0.351 OA
ATOM     56  C   UNL     1     -11.541  12.293  64.096  0.00  0.00    +0.174 C 
ENDBRANCH  25  55
TORSDOF 6
ENDMDL
MODEL 8
REMARK VINA RESULT:      -5.8      6.273     10.794
REMARK  Name = 
REMARK  6 active torsions:
REMARK  status: ('A' for Active; 'I' for Inactive)
REMARK    1  A    between atoms: C_2  and  C_3
REMARK    2  A    between atoms: C_11  and  O_12
REMARK    3  A    between atoms: C_31  and  C_32
REMARK    4  A    between atoms: C_34  and  C_35
REMARK    5  A    between atoms: C_40  and  O_41
REMARK    6  A    between atoms: C_54  and  O_55
REMARK                            x       y       z     vdW  Elec       q    Type
REMARK                         _______ _______ _______ _____ _____    ______ ____
ROOT
ATOM      1  C   UNL     1      -5.552   5.713  64.851  0.00  0.00    +0.079 C 
ATOM      2  C   UNL     1      -5.863   5.190  66.346  0.00  0.00    +0.157 C 
ATOM      3  O   UNL     1      -5.892   3.971  66.450  0.00  0.00    -0.296 OA
ATOM      4  C   UNL     1      -6.795   6.101  67.098  0.00  0.00    +0.098 C 
ATOM      5  C   UNL     1      -5.829   6.489  68.373  0.00  0.00    +0.163 C 
ATOM      6  O   UNL     1      -5.890   5.082  68.923  0.00  0.00    -0.223 OA
ATOM      7  C   UNL     1      -7.035   7.160  69.368  0.00  0.00    +0.075 C 
ATOM      8  C   UNL     1      -6.470   6.487  70.707  0.00  0.00    +0.007 C 
ATOM      9  C   UNL     1      -8.283   6.086  68.946  0.00  0.00    +0.189 C 
ATOM     10  O   UNL     1      -9.400   6.822  69.657  0.00  0.00    -0.447 OA
ATOM     11  C   UNL     1     -10.395   7.364  69.021  0.00  0.00    +0.335 C 
ATOM     12  O   UNL     1     -11.436   7.046  68.457  0.00  0.00    -0.248 OA
ATOM     13  C   UNL     1      -9.769   8.806  68.683  0.00  0.00    +0.175 C 
ATOM     14  N   UNL     1     -11.076   9.554  69.170  0.00  0.00    -0.265 N 
ATOM     15  C   UNL     1     -12.024   8.942  70.033  0.00  0.00    +0.094 C 
ATOM     16  C   UNL     1     -11.290   8.622  71.291  0.00  0.00    +0.022 C 
ATOM     17  C   UNL     1      -9.881   8.915  71.262  0.00  0.00    +0.004 C 
ATOM     18  C   UNL     1     -10.745  10.934  69.421  0.00  0.00    +0.289 C 
ATOM     19  O   UNL     1     -11.312  11.683  70.272  0.00  0.00    -0.267 OA
ATOM     20  C   UNL     1      -9.744  11.366  68.415  0.00  0.00    +0.279 C 
ATOM     21  O   UNL     1      -9.105  12.418  68.747  0.00  0.00    -0.281 OA
ATOM     22  C   UNL     1     -10.123  10.926  67.085  0.00  0.00    +0.279 C 
ATOM     23  C   UNL     1     -10.242  12.455  66.511  0.00  0.00    +0.065 C 
ATOM     24  C   UNL     1     -11.462  12.127  65.480  0.00  0.00    +0.038 C 
ATOM     25  C   UNL     1     -10.391  11.678  64.341  0.00  0.00    +0.145 C 
ATOM     26  C   UNL     1     -10.172  10.130  65.046  0.00  0.00    +0.172 C 
ATOM     27  C   UNL     1      -9.022   9.566  63.900  0.00  0.00    +0.145 C 
ATOM     28  C   UNL     1      -7.665  10.266  64.509  0.00  0.00    +0.032 C 
ATOM     29  C   UNL     1      -6.806   9.440  63.371  0.00  0.00    +0.007 C 
ATOM     30  C   UNL     1      -5.468  10.345  63.568  0.00  0.00    +0.000 C 
ATOM     31  C   UNL     1      -6.424   8.291  64.441  0.00  0.00    +0.022 C 
ATOM     32  C   UNL     1      -5.016   8.156  64.685  0.00  0.00    -0.048 C 
ATOM     33  C   UNL     1      -4.099   9.154  65.356  0.00  0.00    +0.026 C 
ATOM     34  C   UNL     1     -11.291  13.041  67.614  0.00  0.00    +0.006 C 
ATOM     35  O   UNL     1     -11.395  10.364  66.946  0.00  0.00    -0.187 OA
ATOM     36  O   UNL     1      -9.222  10.557  66.133  0.00  0.00    -0.324 OA
ATOM     37  C   UNL     1      -9.047   9.150  70.129  0.00  0.00    +0.031 C 
ATOM     38  C   UNL     1      -4.817   7.029  65.402  0.00  0.00    -0.028 C 
ENDROOT
BRANCH   9  39
ATOM     39  C   UNL     1      -8.114   5.060  70.189  0.00  0.00    -0.009 C 
ATOM     40  C   UNL     1      -9.117   4.922  71.025  0.00  0.00    -0.031 C 
ATOM     41  C   UNL     1      -7.849   3.616  69.850  0.00  0.00    +0.030 C 
BRANCH  40  42
ATOM     42  C   UNL     1      -8.779   4.460  72.514  0.00  0.00    +0.024 C 
ATOM     43  C   UNL     1      -8.447   6.007  72.920  0.00  0.00    +0.035 C 
ATOM     44  C   UNL     1      -7.762   5.861  74.407  0.00  0.00    +0.131 C 
ATOM     45  C   UNL     1      -8.786   4.613  74.924  0.00  0.00    +0.107 C 
ATOM     46 CL   UNL     1      -8.889   5.169  76.689  0.00  0.00    -0.112 Cl
ATOM     47  C   UNL     1     -10.182   5.177  74.441  0.00  0.00    +0.019 C 
ATOM     48  C   UNL     1     -10.324   4.589  73.037  0.00  0.00    +0.006 C 
BRANCH  44  49
ATOM     49  O   UNL     1      -8.637   6.975  74.957  0.00  0.00    -0.352 OA
ATOM     50  C   UNL     1      -8.000   8.162  74.573  0.00  0.00    +0.174 C 
ENDBRANCH  44  49
ENDBRANCH  40  42
ENDBRANCH   9  39
BRANCH   1  52
ATOM     51  C   UNL     1      -3.918   4.832  63.912  0.00  0.00    +0.001 C 
ATOM     52  C   UNL     1      -4.130   4.901  64.765  0.00  0.00    +0.012 C 
ENDBRANCH   1  52
BRANCH  27  53
ATOM     53  O   UNL     1      -9.238  10.618  62.840  0.00  0.00    -0.351 OA
ATOM     54  C   UNL     1      -9.062  10.159  61.588  0.00  0.00    +0.174 C 
ENDBRANCH  27  53
BRANCH  25  55
ATOM     55  O   UNL     1     -11.503  11.141  63.469  0.00  0.00    -0.351 OA
ATOM     56  C   UNL     1     -12.404  12.192  63.501  0.00  0.00    +0.174 C 
ENDBRANCH  25  55
TORSDOF 6
ENDMDL
MODEL 9
REMARK VINA RESULT:      -5.7      4.956     10.242
REMARK  Name = 
REMARK  6 active torsions:
REMARK  status: ('A' for Active; 'I' for Inactive)
REMARK    1  A    between atoms: C_2  and  C_3
REMARK    2  A    between atoms: C_11  and  O_12
REMARK    3  A    between atoms: C_31  and  C_32
REMARK    4  A    between atoms: C_34  and  C_35
REMARK    5  A    between atoms: C_40  and  O_41
REMARK    6  A    between atoms: C_54  and  O_55
REMARK                            x       y       z     vdW  Elec       q    Type
REMARK                         _______ _______ _______ _____ _____    ______ ____
ROOT
ATOM      1  C   UNL     1     -10.255  11.780  68.492  0.00  0.00    +0.079 C 
ATOM      2  C   UNL     1     -10.766  10.381  69.115  0.00  0.00    +0.157 C 
ATOM      3  O   UNL     1     -11.949  10.378  69.427  0.00  0.00    -0.296 OA
ATOM      4  C   UNL     1      -9.703   9.680  69.916  0.00  0.00    +0.098 C 
ATOM      5  C   UNL     1      -9.610   8.269  69.074  0.00  0.00    +0.163 C 
ATOM      6  O   UNL     1     -10.991   7.843  69.520  0.00  0.00    -0.223 OA
ATOM      7  C   UNL     1      -8.730   7.379  70.226  0.00  0.00    +0.075 C 
ATOM      8  C   UNL     1      -9.580   6.039  70.015  0.00  0.00    +0.007 C 
ATOM      9  C   UNL     1      -9.466   8.036  71.610  0.00  0.00    +0.189 C 
ATOM     10  O   UNL     1      -8.527   7.412  72.624  0.00  0.00    -0.447 OA
ATOM     11  C   UNL     1      -7.740   8.121  73.375  0.00  0.00    +0.335 C 
ATOM     12  O   UNL     1      -7.781   8.832  74.373  0.00  0.00    -0.248 OA
ATOM     13  C   UNL     1      -6.466   8.264  72.405  0.00  0.00    +0.175 C 
ATOM     14  N   UNL     1      -5.462   7.884  73.568  0.00  0.00    -0.265 N 
ATOM     15  C   UNL     1      -5.881   7.195  74.737  0.00  0.00    +0.094 C 
ATOM     16  C   UNL     1      -6.423   5.886  74.274  0.00  0.00    +0.022 C 
ATOM     17  C   UNL     1      -6.461   5.717  72.845  0.00  0.00    +0.004 C 
ATOM     18  C   UNL     1      -4.209   7.485  72.977  0.00  0.00    +0.289 C 
ATOM     19  O   UNL     1      -3.392   6.654  73.476  0.00  0.00    -0.267 OA
ATOM     20  C   UNL     1      -3.971   8.323  71.776  0.00  0.00    +0.279 C 
ATOM     21  O   UNL     1      -3.112   7.832  70.971  0.00  0.00    -0.281 OA
ATOM     22  C   UNL     1      -4.246   9.720  72.056  0.00  0.00    +0.279 C 
ATOM     23  C   UNL     1      -2.704  10.181  71.752  0.00  0.00    +0.065 C 
ATOM     24  C   UNL     1      -2.691  11.377  72.860  0.00  0.00    +0.038 C 
ATOM     25  C   UNL     1      -3.318  12.407  71.769  0.00  0.00    +0.145 C 
ATOM     26  C   UNL     1      -4.907  11.806  71.998  0.00  0.00    +0.172 C 
ATOM     27  C   UNL     1      -5.664  12.842  70.855  0.00  0.00    +0.145 C 
ATOM     28  C   UNL     1      -5.327  12.018  69.474  0.00  0.00    +0.032 C 
ATOM     29  C   UNL     1      -6.271  13.103  68.671  0.00  0.00    +0.007 C 
ATOM     30  C   UNL     1      -5.710  12.671  67.206  0.00  0.00    +0.000 C 
ATOM     31  C   UNL     1      -7.529  12.089  68.705  0.00  0.00    +0.022 C 
ATOM     32  C   UNL     1      -7.997  11.684  67.410  0.00  0.00    -0.048 C 
ATOM     33  C   UNL     1      -7.271  10.829  66.396  0.00  0.00    +0.026 C 
ATOM     34  C   UNL     1      -1.947   9.172  72.787  0.00  0.00    +0.006 C 
ATOM     35  O   UNL     1      -4.492  10.058  73.389  0.00  0.00    -0.187 OA
ATOM     36  O   UNL     1      -4.765  10.580  71.137  0.00  0.00    -0.324 OA
ATOM     37  C   UNL     1      -6.370   6.717  71.832  0.00  0.00    +0.031 C 
ATOM     38  C   UNL     1      -9.173  11.040  67.567  0.00  0.00    -0.028 C 
ENDROOT
BRANCH   9  39
ATOM     39  C   UNL     1     -10.562   6.867  71.847  0.00  0.00    -0.009 C 
ATOM     40  C   UNL     1     -10.481   6.147  72.942  0.00  0.00    -0.031 C 
ATOM     41  C   UNL     1     -12.007   7.291  71.912  0.00  0.00    +0.030 C 
BRANCH  40  42
ATOM     42  C   UNL     1     -11.091   4.673  72.904  0.00  0.00    +0.024 C 
ATOM     43  C   UNL     1      -9.649   4.089  72.404  0.00  0.00    +0.035 C 
ATOM     44  C   UNL     1     -10.003   2.542  71.979  0.00  0.00    +0.131 C 
ATOM     45  C   UNL     1     -11.098   2.283  73.247  0.00  0.00    +0.107 C 
ATOM     46 CL   UNL     1     -10.651   0.506  73.525  0.00  0.00    -0.112 Cl
ATOM     47  C   UNL     1     -10.283   2.900  74.453  0.00  0.00    +0.019 C 
ATOM     48  C   UNL     1     -10.746   4.357  74.472  0.00  0.00    +0.006 C 
BRANCH  44  49
ATOM     49  O   UNL     1      -8.799   2.019  72.747  0.00  0.00    -0.352 OA
ATOM     50  C   UNL     1      -7.717   2.165  71.870  0.00  0.00    +0.174 C 
ENDBRANCH  44  49
ENDBRANCH  40  42
ENDBRANCH   9  39
BRANCH   1  52
ATOM     51  C   UNL     1     -11.582  12.590  67.110  0.00  0.00    +0.001 C 
ATOM     52  C   UNL     1     -11.368  11.754  67.288  0.00  0.00    +0.012 C 
ENDBRANCH   1  52
BRANCH  27  53
ATOM     53  O   UNL     1      -4.540  13.834  70.684  0.00  0.00    -0.351 OA
ATOM     54  C   UNL     1      -4.962  15.107  70.577  0.00  0.00    +0.174 C 
ENDBRANCH  27  53
BRANCH  25  55
ATOM     55  O   UNL     1      -3.541  13.449  72.841  0.00  0.00    -0.351 OA
ATOM     56  C   UNL     1      -2.253  13.627  73.318  0.00  0.00    +0.174 C 
ENDBRANCH  25  55
TORSDOF 6
ENDMDL
