MODEL 1
REMARK VINA RESULT:      -8.0      0.000      0.000
REMARK  Name = 
REMARK  2 active torsions:
REMARK  status: ('A' for Active; 'I' for Inactive)
REMARK    1  A    between atoms: C_24  and  C_26
REMARK    2  A    between atoms: C_26  and  C_28
REMARK                            x       y       z     vdW  Elec       q    Type
REMARK                         _______ _______ _______ _____ _____    ______ ____
ROOT
ATOM      1  C   UNL     1      -9.755  20.438  67.636  0.00  0.00    +0.003 C 
ATOM      2  C   UNL     1      -8.940  19.441  68.638  0.00  0.00    +0.035 C 
ATOM      3  C   UNL     1      -8.124  18.650  67.482  0.00  0.00    +0.180 C 
ATOM      4  O   UNL     1      -7.108  18.092  68.250  0.00  0.00    -0.218 OA
ATOM      5  C   UNL     1      -9.018  17.605  66.993  0.00  0.00    +0.035 C 
ATOM      6  C   UNL     1      -9.309  17.053  68.478  0.00  0.00    +0.006 C 
ATOM      7  C   UNL     1     -10.616  16.133  67.920  0.00  0.00    +0.036 C 
ATOM      8  C   UNL     1      -9.679  14.991  67.309  0.00  0.00    +0.168 C 
ATOM      9  C   UNL     1      -9.384  15.401  65.750  0.00  0.00    +0.182 C 
ATOM     10  O   UNL     1     -10.639  16.240  65.576  0.00  0.00    -0.220 OA
ATOM     11  F   UNL     1      -8.519  14.864  67.928  0.00  0.00    -0.237 F 
ATOM     12  C   UNL     1     -10.472  13.755  67.092  0.00  0.00    +0.066 C 
ATOM     13  C   UNL     1     -11.080  13.268  68.363  0.00  0.00    -0.003 C 
ATOM     14  C   UNL     1     -11.677  12.085  68.285  0.00  0.00    +0.036 C 
ATOM     15  C   UNL     1     -11.076  11.062  67.422  0.00  0.00    +0.195 C 
ATOM     16  C   UNL     1     -10.071  11.500  66.446  0.00  0.00    +0.038 C 
ATOM     17  O   UNL     1     -11.227   9.838  67.628  0.00  0.00    -0.287 OA
ATOM     18  C   UNL     1     -12.063  14.460  68.866  0.00  0.00    +0.180 C 
ATOM     19  F   UNL     1     -12.189  13.831  70.233  0.00  0.00    -0.233 F 
ATOM     20  C   UNL     1     -11.574  13.971  66.061  0.00  0.00    +0.011 C 
ATOM     21  C   UNL     1      -9.592  12.743  66.487  0.00  0.00    -0.017 C 
ATOM     22  C   UNL     1     -10.761  15.365  69.344  0.00  0.00    +0.042 C 
ATOM     23  C   UNL     1     -10.185  18.316  66.436  0.00  0.00    +0.003 C 
ATOM     24  C   UNL     1      -8.396  16.647  66.160  0.00  0.00    +0.038 C 
ATOM     25  C   UNL     1     -10.187  18.382  68.750  0.00  0.00    +0.003 C 
ENDROOT
BRANCH   3  26
ATOM     26  C   UNL     1      -7.559  19.519  66.504  0.00  0.00    +0.211 C 
ATOM     27  O   UNL     1      -7.715  19.647  65.322  0.00  0.00    -0.291 OA
BRANCH  26  28
ATOM     28  C   UNL     1      -6.309  20.197  67.000  0.00  0.00    +0.248 C 
ATOM     29  O   UNL     1      -6.464  21.562  67.085  0.00  0.00    -0.212 OA
ENDBRANCH  26  28
ENDBRANCH   3  26
TORSDOF 2
ENDMDL
MODEL 2
REMARK VINA RESULT:      -7.3      1.847      6.866
REMARK  Name = 
REMARK  2 active torsions:
REMARK  status: ('A' for Active; 'I' for Inactive)
REMARK    1  A    between atoms: C_24  and  C_26
REMARK    2  A    between atoms: C_26  and  C_28
REMARK                            x       y       z     vdW  Elec       q    Type
REMARK                         _______ _______ _______ _____ _____    ______ ____
ROOT
ATOM      1  C   UNL     1     -11.959  13.736  69.311  0.00  0.00    +0.003 C 
ATOM      2  C   UNL     1     -12.011  14.417  67.829  0.00  0.00    +0.035 C 
ATOM      3  C   UNL     1     -10.546  13.918  67.348  0.00  0.00    +0.180 C 
ATOM      4  O   UNL     1     -10.680  14.080  65.974  0.00  0.00    -0.218 OA
ATOM      5  C   UNL     1      -9.590  14.885  67.879  0.00  0.00    +0.035 C 
ATOM      6  C   UNL     1     -10.400  16.135  67.268  0.00  0.00    +0.006 C 
ATOM      7  C   UNL     1      -9.511  17.222  68.214  0.00  0.00    +0.036 C 
ATOM      8  C   UNL     1      -8.226  17.151  67.265  0.00  0.00    +0.168 C 
ATOM      9  C   UNL     1      -7.269  15.956  67.850  0.00  0.00    +0.182 C 
ATOM     10  O   UNL     1      -7.790  16.031  69.274  0.00  0.00    -0.220 OA
ATOM     11  F   UNL     1      -8.508  16.872  66.004  0.00  0.00    -0.237 F 
ATOM     12  C   UNL     1      -7.347  18.319  67.522  0.00  0.00    +0.066 C 
ATOM     13  C   UNL     1      -8.066  19.603  67.286  0.00  0.00    -0.003 C 
ATOM     14  C   UNL     1      -7.308  20.691  67.345  0.00  0.00    +0.036 C 
ATOM     15  C   UNL     1      -5.939  20.611  66.824  0.00  0.00    +0.195 C 
ATOM     16  C   UNL     1      -5.376  19.275  66.591  0.00  0.00    +0.038 C 
ATOM     17  O   UNL     1      -5.329  21.609  66.382  0.00  0.00    -0.287 OA
ATOM     18  C   UNL     1      -9.304  19.615  68.337  0.00  0.00    +0.180 C 
ATOM     19  F   UNL     1      -9.959  20.766  67.612  0.00  0.00    -0.233 F 
ATOM     20  C   UNL     1      -6.802  18.305  68.946  0.00  0.00    +0.011 C 
ATOM     21  C   UNL     1      -6.156  18.196  66.668  0.00  0.00    -0.017 C 
ATOM     22  C   UNL     1     -10.123  18.503  67.424  0.00  0.00    +0.042 C 
ATOM     23  C   UNL     1      -9.729  14.809  69.347  0.00  0.00    +0.003 C 
ATOM     24  C   UNL     1      -8.283  14.763  67.354  0.00  0.00    +0.038 C 
ATOM     25  C   UNL     1     -11.539  15.886  68.386  0.00  0.00    +0.003 C 
ENDROOT
BRANCH   3  26
ATOM     26  C   UNL     1     -10.299  12.546  67.644  0.00  0.00    +0.211 C 
ATOM     27  O   UNL     1      -9.414  11.967  68.209  0.00  0.00    -0.291 OA
BRANCH  26  28
ATOM     28  C   UNL     1     -11.164  11.623  66.825  0.00  0.00    +0.248 C 
ATOM     29  O   UNL     1     -11.739  10.638  67.596  0.00  0.00    -0.212 OA
ENDBRANCH  26  28
ENDBRANCH   3  26
TORSDOF 2
ENDMDL
MODEL 3
REMARK VINA RESULT:      -7.0      3.371      7.916
REMARK  Name = 
REMARK  2 active torsions:
REMARK  status: ('A' for Active; 'I' for Inactive)
REMARK    1  A    between atoms: C_24  and  C_26
REMARK    2  A    between atoms: C_26  and  C_28
REMARK                            x       y       z     vdW  Elec       q    Type
REMARK                         _______ _______ _______ _____ _____    ______ ____
ROOT
ATOM      1  C   UNL     1     -10.368   7.333  68.611  0.00  0.00    +0.003 C 
ATOM      2  C   UNL     1      -9.393   7.832  67.401  0.00  0.00    +0.035 C 
ATOM      3  C   UNL     1      -8.669   9.021  68.231  0.00  0.00    +0.180 C 
ATOM      4  O   UNL     1      -7.545   9.213  67.435  0.00  0.00    -0.218 OA
ATOM      5  C   UNL     1      -9.553  10.179  68.144  0.00  0.00    +0.035 C 
ATOM      6  C   UNL     1      -9.647  10.081  66.539  0.00  0.00    +0.006 C 
ATOM      7  C   UNL     1     -10.956  11.155  66.513  0.00  0.00    +0.036 C 
ATOM      8  C   UNL     1     -10.031  12.442  66.722  0.00  0.00    +0.168 C 
ATOM      9  C   UNL     1      -9.933  12.700  68.338  0.00  0.00    +0.182 C 
ATOM     10  O   UNL     1     -11.243  12.011  68.679  0.00  0.00    -0.220 OA
ATOM     11  F   UNL     1      -8.804  12.301  66.253  0.00  0.00    -0.237 F 
ATOM     12  C   UNL     1     -10.774  13.663  66.323  0.00  0.00    +0.066 C 
ATOM     13  C   UNL     1     -11.211  13.594  64.899  0.00  0.00    -0.003 C 
ATOM     14  C   UNL     1     -11.747  14.710  64.420  0.00  0.00    +0.036 C 
ATOM     15  C   UNL     1     -11.191  15.992  64.864  0.00  0.00    +0.195 C 
ATOM     16  C   UNL     1     -10.324  15.985  66.050  0.00  0.00    +0.038 C 
ATOM     17  O   UNL     1     -11.251  17.028  64.166  0.00  0.00    -0.287 OA
ATOM     18  C   UNL     1     -12.195  12.306  64.803  0.00  0.00    +0.180 C 
ATOM     19  F   UNL     1     -12.135  12.325  63.294  0.00  0.00    -0.233 F 
ATOM     20  C   UNL     1     -11.994  13.891  67.210  0.00  0.00    +0.011 C 
ATOM     21  C   UNL     1      -9.913  14.829  66.573  0.00  0.00    -0.017 C 
ATOM     22  C   UNL     1     -10.900  11.278  64.894  0.00  0.00    +0.042 C 
ATOM     23  C   UNL     1     -10.811   9.762  68.792  0.00  0.00    +0.003 C 
ATOM     24  C   UNL     1      -8.976  11.389  68.590  0.00  0.00    +0.038 C 
ATOM     25  C   UNL     1     -10.562   8.761  66.719  0.00  0.00    +0.003 C 
ENDROOT
BRANCH   3  26
ATOM     26  C   UNL     1      -8.263   8.622  69.538  0.00  0.00    +0.211 C 
ATOM     27  O   UNL     1      -8.566   8.977  70.643  0.00  0.00    -0.291 OA
BRANCH  26  28
ATOM     28  C   UNL     1      -6.993   7.813  69.517  0.00  0.00    +0.248 C 
ATOM     29  O   UNL     1      -7.198   6.522  69.949  0.00  0.00    -0.212 OA
ENDBRANCH  26  28
ENDBRANCH   3  26
TORSDOF 2
ENDMDL
MODEL 4
REMARK VINA RESULT:      -7.0      1.847      2.793
REMARK  Name = 
REMARK  2 active torsions:
REMARK  status: ('A' for Active; 'I' for Inactive)
REMARK    1  A    between atoms: C_24  and  C_26
REMARK    2  A    between atoms: C_26  and  C_28
REMARK                            x       y       z     vdW  Elec       q    Type
REMARK                         _______ _______ _______ _____ _____    ______ ____
ROOT
ATOM      1  C   UNL     1      -5.869  19.865  69.525  0.00  0.00    +0.003 C 
ATOM      2  C   UNL     1      -5.351  18.748  68.455  0.00  0.00    +0.035 C 
ATOM      3  C   UNL     1      -6.288  19.229  67.223  0.00  0.00    +0.180 C 
ATOM      4  O   UNL     1      -5.616  18.625  66.166  0.00  0.00    -0.218 OA
ATOM      5  C   UNL     1      -7.586  18.595  67.424  0.00  0.00    +0.035 C 
ATOM      6  C   UNL     1      -6.932  17.132  67.586  0.00  0.00    +0.006 C 
ATOM      7  C   UNL     1      -8.383  16.510  68.197  0.00  0.00    +0.036 C 
ATOM      8  C   UNL     1      -9.067  16.420  66.754  0.00  0.00    +0.168 C 
ATOM      9  C   UNL     1      -9.851  17.838  66.510  0.00  0.00    +0.182 C 
ATOM     10  O   UNL     1     -10.036  18.162  67.982  0.00  0.00    -0.220 OA
ATOM     11  F   UNL     1      -8.207  16.249  65.765  0.00  0.00    -0.237 F 
ATOM     12  C   UNL     1     -10.231  15.500  66.807  0.00  0.00    +0.066 C 
ATOM     13  C   UNL     1      -9.827  14.135  67.249  0.00  0.00    -0.003 C 
ATOM     14  C   UNL     1     -10.781  13.215  67.176  0.00  0.00    +0.036 C 
ATOM     15  C   UNL     1     -11.720  13.279  66.052  0.00  0.00    +0.195 C 
ATOM     16  C   UNL     1     -11.773  14.526  65.278  0.00  0.00    +0.038 C 
ATOM     17  O   UNL     1     -12.306  12.267  65.608  0.00  0.00    -0.287 OA
ATOM     18  C   UNL     1      -9.214  14.319  68.742  0.00  0.00    +0.180 C 
ATOM     19  F   UNL     1      -8.619  12.932  68.710  0.00  0.00    -0.233 F 
ATOM     20  C   UNL     1     -11.317  16.027  67.739  0.00  0.00    +0.011 C 
ATOM     21  C   UNL     1     -10.862  15.479  65.479  0.00  0.00    -0.017 C 
ATOM     22  C   UNL     1      -7.831  14.984  68.119  0.00  0.00    +0.042 C 
ATOM     23  C   UNL     1      -8.083  19.117  68.712  0.00  0.00    +0.003 C 
ATOM     24  C   UNL     1      -8.460  18.689  66.317  0.00  0.00    +0.038 C 
ATOM     25  C   UNL     1      -6.368  17.595  69.028  0.00  0.00    +0.003 C 
ENDROOT
BRANCH   3  26
ATOM     26  C   UNL     1      -6.286  20.643  67.041  0.00  0.00    +0.211 C 
ATOM     27  O   UNL     1      -7.090  21.506  67.260  0.00  0.00    -0.291 OA
BRANCH  26  28
ATOM     28  C   UNL     1      -5.185  21.097  66.119  0.00  0.00    +0.248 C 
ATOM     29  O   UNL     1      -4.085  21.546  66.815  0.00  0.00    -0.212 OA
ENDBRANCH  26  28
ENDBRANCH   3  26
TORSDOF 2
ENDMDL
MODEL 5
REMARK VINA RESULT:      -6.9      2.155      6.757
REMARK  Name = 
REMARK  2 active torsions:
REMARK  status: ('A' for Active; 'I' for Inactive)
REMARK    1  A    between atoms: C_24  and  C_26
REMARK    2  A    between atoms: C_26  and  C_28
REMARK                            x       y       z     vdW  Elec       q    Type
REMARK                         _______ _______ _______ _____ _____    ______ ____
ROOT
ATOM      1  C   UNL     1     -12.940  12.560  64.898  0.00  0.00    +0.003 C 
ATOM      2  C   UNL     1     -11.787  13.328  64.035  0.00  0.00    +0.035 C 
ATOM      3  C   UNL     1     -10.523  12.753  64.871  0.00  0.00    +0.180 C 
ATOM      4  O   UNL     1      -9.504  13.004  63.959  0.00  0.00    -0.218 OA
ATOM      5  C   UNL     1     -10.378  13.616  66.039  0.00  0.00    +0.035 C 
ATOM      6  C   UNL     1     -10.378  14.955  65.145  0.00  0.00    +0.006 C 
ATOM      7  C   UNL     1     -10.605  15.918  66.519  0.00  0.00    +0.036 C 
ATOM      8  C   UNL     1      -9.076  15.809  66.970  0.00  0.00    +0.168 C 
ATOM      9  C   UNL     1      -8.967  14.516  67.971  0.00  0.00    +0.182 C 
ATOM     10  O   UNL     1     -10.419  14.545  68.413  0.00  0.00    -0.220 OA
ATOM     11  F   UNL     1      -8.234  15.626  65.968  0.00  0.00    -0.237 F 
ATOM     12  C   UNL     1      -8.759  16.893  67.933  0.00  0.00    +0.066 C 
ATOM     13  C   UNL     1      -9.004  18.238  67.339  0.00  0.00    -0.003 C 
ATOM     14  C   UNL     1      -8.601  19.263  68.079  0.00  0.00    +0.036 C 
ATOM     15  C   UNL     1      -7.363  19.114  68.853  0.00  0.00    +0.195 C 
ATOM     16  C   UNL     1      -6.835  17.756  69.038  0.00  0.00    +0.038 C 
ATOM     17  O   UNL     1      -6.647  20.090  69.168  0.00  0.00    -0.287 OA
ATOM     18  C   UNL     1     -10.588  18.278  66.980  0.00  0.00    +0.180 C 
ATOM     19  F   UNL     1     -10.403  19.514  66.132  0.00  0.00    -0.233 F 
ATOM     20  C   UNL     1      -9.571  16.757  69.216  0.00  0.00    +0.011 C 
ATOM     21  C   UNL     1      -7.361  16.734  68.362  0.00  0.00    -0.017 C 
ATOM     22  C   UNL     1     -10.344  17.284  65.679  0.00  0.00    +0.042 C 
ATOM     23  C   UNL     1     -11.636  13.465  66.797  0.00  0.00    +0.003 C 
ATOM     24  C   UNL     1      -9.174  13.431  66.756  0.00  0.00    +0.038 C 
ATOM     25  C   UNL     1     -11.955  14.724  64.881  0.00  0.00    +0.003 C 
ENDROOT
BRANCH   3  26
ATOM     26  C   UNL     1     -10.607  11.352  65.116  0.00  0.00    +0.211 C 
ATOM     27  O   UNL     1     -10.685  10.689  66.113  0.00  0.00    -0.291 OA
BRANCH  26  28
ATOM     28  C   UNL     1     -10.219  10.538  63.909  0.00  0.00    +0.248 C 
ATOM     29  O   UNL     1      -9.301   9.562  64.221  0.00  0.00    -0.212 OA
ENDBRANCH  26  28
ENDBRANCH   3  26
TORSDOF 2
ENDMDL
MODEL 6
REMARK VINA RESULT:      -6.7      2.737      4.396
REMARK  Name = 
REMARK  2 active torsions:
REMARK  status: ('A' for Active; 'I' for Inactive)
REMARK    1  A    between atoms: C_24  and  C_26
REMARK    2  A    between atoms: C_26  and  C_28
REMARK                            x       y       z     vdW  Elec       q    Type
REMARK                         _______ _______ _______ _____ _____    ______ ____
ROOT
ATOM      1  C   UNL     1      -4.122  20.826  67.738  0.00  0.00    +0.003 C 
ATOM      2  C   UNL     1      -5.558  21.104  68.459  0.00  0.00    +0.035 C 
ATOM      3  C   UNL     1      -5.442  19.917  69.557  0.00  0.00    +0.180 C 
ATOM      4  O   UNL     1      -6.400  20.345  70.469  0.00  0.00    -0.218 OA
ATOM      5  C   UNL     1      -5.889  18.699  68.890  0.00  0.00    +0.035 C 
ATOM      6  C   UNL     1      -7.260  19.382  68.393  0.00  0.00    +0.006 C 
ATOM      7  C   UNL     1      -7.552  18.104  67.321  0.00  0.00    +0.036 C 
ATOM      8  C   UNL     1      -8.060  17.122  68.476  0.00  0.00    +0.168 C 
ATOM      9  C   UNL     1      -6.749  16.294  69.006  0.00  0.00    +0.182 C 
ATOM     10  O   UNL     1      -5.953  16.434  67.721  0.00  0.00    -0.220 OA
ATOM     11  F   UNL     1      -8.599  17.745  69.509  0.00  0.00    -0.237 F 
ATOM     12  C   UNL     1      -8.832  16.004  67.879  0.00  0.00    +0.066 C 
ATOM     13  C   UNL     1     -10.004  16.504  67.104  0.00  0.00    -0.003 C 
ATOM     14  C   UNL     1     -10.832  15.564  66.667  0.00  0.00    +0.036 C 
ATOM     15  C   UNL     1     -11.074  14.400  67.526  0.00  0.00    +0.195 C 
ATOM     16  C   UNL     1     -10.146  14.171  68.640  0.00  0.00    +0.038 C 
ATOM     17  O   UNL     1     -12.135  13.737  67.476  0.00  0.00    -0.287 OA
ATOM     18  C   UNL     1      -9.386  17.428  65.920  0.00  0.00    +0.180 C 
ATOM     19  F   UNL     1     -10.745  18.010  65.613  0.00  0.00    -0.233 F 
ATOM     20  C   UNL     1      -7.960  15.145  66.969  0.00  0.00    +0.011 C 
ATOM     21  C   UNL     1      -9.243  15.097  68.962  0.00  0.00    -0.017 C 
ATOM     22  C   UNL     1      -9.053  18.636  67.002  0.00  0.00    +0.042 C 
ATOM     23  C   UNL     1      -4.945  18.493  67.775  0.00  0.00    +0.003 C 
ATOM     24  C   UNL     1      -6.101  17.603  69.757  0.00  0.00    +0.038 C 
ATOM     25  C   UNL     1      -6.393  20.245  67.338  0.00  0.00    +0.003 C 
ENDROOT
BRANCH   3  26
ATOM     26  C   UNL     1      -4.168  19.869  70.193  0.00  0.00    +0.211 C 
ATOM     27  O   UNL     1      -3.262  19.084  70.172  0.00  0.00    -0.291 OA
BRANCH  26  28
ATOM     28  C   UNL     1      -4.069  20.836  71.344  0.00  0.00    +0.248 C 
ATOM     29  O   UNL     1      -3.591  20.232  72.484  0.00  0.00    -0.212 OA
ENDBRANCH  26  28
ENDBRANCH   3  26
TORSDOF 2
ENDMDL
MODEL 7
REMARK VINA RESULT:      -6.6      5.530      9.354
REMARK  Name = 
REMARK  2 active torsions:
REMARK  status: ('A' for Active; 'I' for Inactive)
REMARK    1  A    between atoms: C_24  and  C_26
REMARK    2  A    between atoms: C_26  and  C_28
REMARK                            x       y       z     vdW  Elec       q    Type
REMARK                         _______ _______ _______ _____ _____    ______ ____
ROOT
ATOM      1  C   UNL     1      -9.539   8.051  72.956  0.00  0.00    +0.003 C 
ATOM      2  C   UNL     1     -10.904   7.849  72.087  0.00  0.00    +0.035 C 
ATOM      3  C   UNL     1     -10.232   6.986  70.891  0.00  0.00    +0.180 C 
ATOM      4  O   UNL     1     -11.375   6.416  70.340  0.00  0.00    -0.218 OA
ATOM      5  C   UNL     1      -9.654   7.953  69.964  0.00  0.00    +0.035 C 
ATOM      6  C   UNL     1     -11.028   8.787  69.857  0.00  0.00    +0.006 C 
ATOM      7  C   UNL     1     -10.227  10.082  69.116  0.00  0.00    +0.036 C 
ATOM      8  C   UNL     1     -10.160   9.355  67.694  0.00  0.00    +0.168 C 
ATOM      9  C   UNL     1      -8.742   8.534  67.647  0.00  0.00    +0.182 C 
ATOM     10  O   UNL     1      -8.026   9.415  68.655  0.00  0.00    -0.220 OA
ATOM     11  F   UNL     1     -11.141   8.494  67.486  0.00  0.00    -0.237 F 
ATOM     12  C   UNL     1      -9.899  10.357  66.630  0.00  0.00    +0.066 C 
ATOM     13  C   UNL     1     -10.958  11.405  66.599  0.00  0.00    -0.003 C 
ATOM     14  C   UNL     1     -10.883  12.251  65.579  0.00  0.00    +0.036 C 
ATOM     15  C   UNL     1     -10.450  11.731  64.278  0.00  0.00    +0.195 C 
ATOM     16  C   UNL     1      -9.805  10.412  64.252  0.00  0.00    +0.038 C 
ATOM     17  O   UNL     1     -10.793  12.258  63.196  0.00  0.00    -0.287 OA
ATOM     18  C   UNL     1     -10.903  12.131  68.051  0.00  0.00    +0.180 C 
ATOM     19  F   UNL     1     -12.234  12.801  67.810  0.00  0.00    -0.233 F 
ATOM     20  C   UNL     1      -8.540  11.023  66.810  0.00  0.00    +0.011 C 
ATOM     21  C   UNL     1      -9.796   9.649  65.345  0.00  0.00    -0.017 C 
ATOM     22  C   UNL     1     -11.629  10.823  68.761  0.00  0.00    +0.042 C 
ATOM     23  C   UNL     1      -8.632   8.680  70.741  0.00  0.00    +0.003 C 
ATOM     24  C   UNL     1      -9.245   7.404  68.727  0.00  0.00    +0.038 C 
ATOM     25  C   UNL     1     -10.769   9.316  71.362  0.00  0.00    +0.003 C 
ENDROOT
BRANCH   3  26
ATOM     26  C   UNL     1      -9.368   5.956  71.364  0.00  0.00    +0.211 C 
ATOM     27  O   UNL     1      -8.183   5.780  71.308  0.00  0.00    -0.291 OA
BRANCH  26  28
ATOM     28  C   UNL     1     -10.122   4.707  71.739  0.00  0.00    +0.248 C 
ATOM     29  O   UNL     1     -10.169   4.525  73.102  0.00  0.00    -0.212 OA
ENDBRANCH  26  28
ENDBRANCH   3  26
TORSDOF 2
ENDMDL
MODEL 8
REMARK VINA RESULT:      -6.5      2.032      3.014
REMARK  Name = 
REMARK  2 active torsions:
REMARK  status: ('A' for Active; 'I' for Inactive)
REMARK    1  A    between atoms: C_24  and  C_26
REMARK    2  A    between atoms: C_26  and  C_28
REMARK                            x       y       z     vdW  Elec       q    Type
REMARK                         _______ _______ _______ _____ _____    ______ ____
ROOT
ATOM      1  C   UNL     1      -5.932  19.868  66.378  0.00  0.00    +0.003 C 
ATOM      2  C   UNL     1      -7.426  19.934  67.031  0.00  0.00    +0.035 C 
ATOM      3  C   UNL     1      -7.092  19.039  68.340  0.00  0.00    +0.180 C 
ATOM      4  O   UNL     1      -8.164  19.396  69.150  0.00  0.00    -0.218 OA
ATOM      5  C   UNL     1      -7.215  17.646  67.925  0.00  0.00    +0.035 C 
ATOM      6  C   UNL     1      -8.682  17.881  67.303  0.00  0.00    +0.006 C 
ATOM      7  C   UNL     1      -8.622  16.390  66.503  0.00  0.00    +0.036 C 
ATOM      8  C   UNL     1      -8.944  15.555  67.828  0.00  0.00    +0.168 C 
ATOM      9  C   UNL     1      -7.504  15.174  68.511  0.00  0.00    +0.182 C 
ATOM     10  O   UNL     1      -6.703  15.249  67.223  0.00  0.00    -0.220 OA
ATOM     11  F   UNL     1      -9.660  16.220  68.718  0.00  0.00    -0.237 F 
ATOM     12  C   UNL     1      -9.410  14.194  67.461  0.00  0.00    +0.066 C 
ATOM     13  C   UNL     1     -10.628  14.248  66.603  0.00  0.00    -0.003 C 
ATOM     14  C   UNL     1     -11.197  13.075  66.359  0.00  0.00    +0.036 C 
ATOM     15  C   UNL     1     -11.205  12.072  67.430  0.00  0.00    +0.195 C 
ATOM     16  C   UNL     1     -10.301  12.284  68.568  0.00  0.00    +0.038 C 
ATOM     17  O   UNL     1     -12.081  11.183  67.511  0.00  0.00    -0.287 OA
ATOM     18  C   UNL     1     -10.185  15.048  65.261  0.00  0.00    +0.180 C 
ATOM     19  F   UNL     1     -11.626  15.226  64.846  0.00  0.00    -0.233 F 
ATOM     20  C   UNL     1      -8.323  13.406  66.739  0.00  0.00    +0.011 C 
ATOM     21  C   UNL     1      -9.651  13.440  68.701  0.00  0.00    -0.017 C 
ATOM     22  C   UNL     1     -10.189  16.484  66.085  0.00  0.00    +0.042 C 
ATOM     23  C   UNL     1      -6.198  17.458  66.872  0.00  0.00    +0.003 C 
ATOM     24  C   UNL     1      -7.210  16.717  68.991  0.00  0.00    +0.038 C 
ATOM     25  C   UNL     1      -7.988  18.706  66.099  0.00  0.00    +0.003 C 
ENDROOT
BRANCH   3  26
ATOM     26  C   UNL     1      -5.871  19.414  68.974  0.00  0.00    +0.211 C 
ATOM     27  O   UNL     1      -4.757  18.971  68.949  0.00  0.00    -0.291 OA
BRANCH  26  28
ATOM     28  C   UNL     1      -6.094  20.358  70.126  0.00  0.00    +0.248 C 
ATOM     29  O   UNL     1      -5.035  21.220  70.297  0.00  0.00    -0.212 OA
ENDBRANCH  26  28
ENDBRANCH   3  26
TORSDOF 2
ENDMDL
MODEL 9
REMARK VINA RESULT:      -6.5      2.051      7.004
REMARK  Name = 
REMARK  2 active torsions:
REMARK  status: ('A' for Active; 'I' for Inactive)
REMARK    1  A    between atoms: C_24  and  C_26
REMARK    2  A    between atoms: C_26  and  C_28
REMARK                            x       y       z     vdW  Elec       q    Type
REMARK                         _______ _______ _______ _____ _____    ______ ____
ROOT
ATOM      1  C   UNL     1     -12.168  14.099  65.798  0.00  0.00    +0.003 C 
ATOM      2  C   UNL     1     -10.578  13.931  65.472  0.00  0.00    +0.035 C 
ATOM      3  C   UNL     1     -10.098  13.740  67.008  0.00  0.00    +0.180 C 
ATOM      4  O   UNL     1      -8.847  13.172  66.795  0.00  0.00    -0.218 OA
ATOM      5  C   UNL     1      -9.954  15.083  67.561  0.00  0.00    +0.035 C 
ATOM      6  C   UNL     1      -9.020  15.568  66.342  0.00  0.00    +0.006 C 
ATOM      7  C   UNL     1      -9.200  17.188  66.799  0.00  0.00    +0.036 C 
ATOM      8  C   UNL     1      -8.155  17.068  68.003  0.00  0.00    +0.168 C 
ATOM      9  C   UNL     1      -9.013  16.661  69.339  0.00  0.00    +0.182 C 
ATOM     10  O   UNL     1     -10.328  17.247  68.856  0.00  0.00    -0.220 OA
ATOM     11  F   UNL     1      -7.226  16.147  67.814  0.00  0.00    -0.237 F 
ATOM     12  C   UNL     1      -7.697  18.421  68.406  0.00  0.00    +0.066 C 
ATOM     13  C   UNL     1      -7.060  19.142  67.268  0.00  0.00    -0.003 C 
ATOM     14  C   UNL     1      -6.487  20.297  67.584  0.00  0.00    +0.036 C 
ATOM     15  C   UNL     1      -5.805  20.401  68.878  0.00  0.00    +0.195 C 
ATOM     16  C   UNL     1      -6.083  19.364  69.880  0.00  0.00    +0.038 C 
ATOM     17  O   UNL     1      -4.860  21.196  69.078  0.00  0.00    -0.287 OA
ATOM     18  C   UNL     1      -8.213  19.277  66.132  0.00  0.00    +0.180 C 
ATOM     19  F   UNL     1      -7.194  19.673  65.091  0.00  0.00    -0.233 F 
ATOM     20  C   UNL     1      -8.848  19.261  68.950  0.00  0.00    +0.011 C 
ATOM     21  C   UNL     1      -6.776  18.276  69.544  0.00  0.00    -0.017 C 
ATOM     22  C   UNL     1      -8.059  17.673  65.750  0.00  0.00    +0.042 C 
ATOM     23  C   UNL     1     -11.301  15.683  67.490  0.00  0.00    +0.003 C 
ATOM     24  C   UNL     1      -9.298  15.132  68.812  0.00  0.00    +0.038 C 
ATOM     25  C   UNL     1     -10.328  15.551  65.394  0.00  0.00    +0.003 C 
ENDROOT
BRANCH   3  26
ATOM     26  C   UNL     1     -10.915  12.830  67.739  0.00  0.00    +0.211 C 
ATOM     27  O   UNL     1     -11.608  12.938  68.712  0.00  0.00    -0.291 OA
BRANCH  26  28
ATOM     28  C   UNL     1     -10.610  11.394  67.403  0.00  0.00    +0.248 C 
ATOM     29  O   UNL     1     -11.689  10.571  67.635  0.00  0.00    -0.212 OA
ENDBRANCH  26  28
ENDBRANCH   3  26
TORSDOF 2
ENDMDL
