MODEL 1
REMARK VINA RESULT:      -6.7      0.000      0.000
REMARK  Name = 
REMARK  10 active torsions:
REMARK  status: ('A' for Active; 'I' for Inactive)
REMARK    1  A    between atoms: O_2  and  C_3
REMARK    2  A    between atoms: C_10  and  C_11
REMARK    3  A    between atoms: C_11  and  C_12
REMARK    4  A    between atoms: C_13  and  C_15
REMARK    5  A    between atoms: C_15  and  C_16
REMARK    6  A    between atoms: C_16  and  C_17
REMARK    7  A    between atoms: C_17  and  O_19
REMARK    8  A    between atoms: O_19  and  C_20
REMARK    9  A    between atoms: C_20  and  C_21
REMARK   10  A    between atoms: C_21  and  N_22
REMARK                            x       y       z     vdW  Elec       q    Type
REMARK                         _______ _______ _______ _____ _____    ______ ____
ROOT
ATOM      1  C   UNL     1      -8.203  13.600  67.278  0.00  0.00    -0.030 C 
ATOM      2  C   UNL     1      -8.445  14.884  67.567  0.00  0.00    -0.047 C 
ATOM      3  C   UNL     1      -8.785  15.167  68.997  0.00  0.00    +0.026 C 
ENDROOT
BRANCH   1   4
ATOM      4  C   UNL     1      -8.896  12.484  67.957  0.00  0.00    +0.058 C 
BRANCH   4   6
ATOM      5  C   UNL     1      -9.478  10.852  66.162  0.00  0.00    +0.134 A 
ATOM      6  C   UNL     1      -9.888  11.821  67.054  0.00  0.00    +0.055 A 
ATOM      7  C   UNL     1     -11.112  12.421  66.787  0.00  0.00    +0.201 A 
ATOM      8  O   UNL     1     -11.690  13.163  67.817  0.00  0.00    -0.287 OA
ATOM      9  C   UNL     1     -11.751  12.285  65.563  0.00  0.00    +0.114 A 
ATOM     10  C   UNL     1     -12.754  13.136  64.910  0.00  0.00    +0.344 C 
ATOM     11  O   UNL     1     -12.557  12.968  63.537  0.00  0.00    -0.440 OA
ATOM     12  C   UNL     1     -11.682  11.895  63.290  0.00  0.00    +0.235 C 
ATOM     13  O   UNL     1     -13.191  14.216  65.410  0.00  0.00    -0.245 OA
ATOM     14  C   UNL     1     -11.201  11.421  64.626  0.00  0.00    +0.030 A 
ATOM     15  C   UNL     1     -10.039  10.709  64.900  0.00  0.00    +0.012 A 
ATOM     16  C   UNL     1      -9.319   9.956  63.825  0.00  0.00    +0.034 C 
BRANCH   5  18
ATOM     17  C   UNL     1      -8.617   8.835  67.293  0.00  0.00    +0.252 C 
ATOM     18  O   UNL     1      -8.421  10.024  66.542  0.00  0.00    -0.472 OA
ENDBRANCH   5  18
ENDBRANCH   4   6
ENDBRANCH   1   4
BRANCH   2  19
ATOM     19  C   UNL     1      -8.585  15.924  66.496  0.00  0.00    +0.033 C 
BRANCH  19  20
ATOM     20  C   UNL     1      -9.727  15.531  65.593  0.00  0.00    +0.114 C 
BRANCH  20  21
ATOM     21  C   UNL     1     -10.604  16.704  65.396  0.00  0.00    +0.317 C 
ATOM     22  O   UNL     1     -11.248  16.827  64.330  0.00  0.00    -0.250 OA
BRANCH  21  23
ATOM     23  O   UNL     1     -10.721  17.742  66.319  0.00  0.00    -0.447 OA
BRANCH  23  24
ATOM     24  C   UNL     1     -10.396  19.090  65.989  0.00  0.00    +0.226 C 
BRANCH  24  25
ATOM     25  C   UNL     1     -10.180  19.855  67.288  0.00  0.00    +0.120 C 
BRANCH  25  26
ATOM     26  N   UNL     1      -8.782  19.979  67.620  0.00  0.00    -0.265 NA
ATOM     27  C   UNL     1      -8.361  19.037  68.636  0.00  0.00    +0.105 C 
ATOM     28  C   UNL     1      -6.861  18.895  68.633  0.00  0.00    +0.159 C 
ATOM     29  O   UNL     1      -6.339  20.118  68.189  0.00  0.00    -0.351 OA
ATOM     30  C   UNL     1      -6.533  20.198  66.802  0.00  0.00    +0.159 C 
ATOM     31  C   UNL     1      -7.953  19.806  66.432  0.00  0.00    +0.105 C 
ENDBRANCH  25  26
ENDBRANCH  24  25
ENDBRANCH  23  24
ENDBRANCH  21  23
ENDBRANCH  20  21
ENDBRANCH  19  20
ENDBRANCH   2  19
TORSDOF 10
ENDMDL
MODEL 2
REMARK VINA RESULT:      -6.6      2.587      3.976
REMARK  Name = 
REMARK  10 active torsions:
REMARK  status: ('A' for Active; 'I' for Inactive)
REMARK    1  A    between atoms: O_2  and  C_3
REMARK    2  A    between atoms: C_10  and  C_11
REMARK    3  A    between atoms: C_11  and  C_12
REMARK    4  A    between atoms: C_13  and  C_15
REMARK    5  A    between atoms: C_15  and  C_16
REMARK    6  A    between atoms: C_16  and  C_17
REMARK    7  A    between atoms: C_17  and  O_19
REMARK    8  A    between atoms: O_19  and  C_20
REMARK    9  A    between atoms: C_20  and  C_21
REMARK   10  A    between atoms: C_21  and  N_22
REMARK                            x       y       z     vdW  Elec       q    Type
REMARK                         _______ _______ _______ _____ _____    ______ ____
ROOT
ATOM      1  C   UNL     1      -8.014  13.505  67.072  0.00  0.00    -0.030 C 
ATOM      2  C   UNL     1      -7.973  14.743  67.579  0.00  0.00    -0.047 C 
ATOM      3  C   UNL     1      -7.896  14.822  69.072  0.00  0.00    +0.026 C 
ENDROOT
BRANCH   1   4
ATOM      4  C   UNL     1      -8.681  12.381  67.761  0.00  0.00    +0.058 C 
BRANCH   4   6
ATOM      5  C   UNL     1      -9.292  10.799  65.932  0.00  0.00    +0.134 A 
ATOM      6  C   UNL     1      -9.693  11.716  66.881  0.00  0.00    +0.055 A 
ATOM      7  C   UNL     1     -10.949  12.279  66.698  0.00  0.00    +0.201 A 
ATOM      8  O   UNL     1     -11.502  12.959  67.784  0.00  0.00    -0.287 OA
ATOM      9  C   UNL     1     -11.643  12.167  65.501  0.00  0.00    +0.114 A 
ATOM     10  C   UNL     1     -12.707  13.005  64.932  0.00  0.00    +0.344 C 
ATOM     11  O   UNL     1     -12.572  12.898  63.546  0.00  0.00    -0.440 OA
ATOM     12  C   UNL     1     -11.672  11.869  63.213  0.00  0.00    +0.235 C 
ATOM     13  O   UNL     1     -13.157  14.047  65.496  0.00  0.00    -0.245 OA
ATOM     14  C   UNL     1     -11.109  11.362  64.504  0.00  0.00    +0.030 A 
ATOM     15  C   UNL     1      -9.910  10.684  64.693  0.00  0.00    +0.012 A 
ATOM     16  C   UNL     1      -9.218  10.001  63.555  0.00  0.00    +0.034 C 
BRANCH   5  18
ATOM     17  C   UNL     1      -8.300   8.792  66.971  0.00  0.00    +0.252 C 
ATOM     18  O   UNL     1      -8.189   9.997  66.226  0.00  0.00    -0.472 OA
ENDBRANCH   5  18
ENDBRANCH   4   6
ENDBRANCH   1   4
BRANCH   2  19
ATOM     19  C   UNL     1      -8.211  15.955  66.731  0.00  0.00    +0.033 C 
BRANCH  19  20
ATOM     20  C   UNL     1      -9.637  15.925  66.241  0.00  0.00    +0.114 C 
BRANCH  20  21
ATOM     21  C   UNL     1     -10.325  17.151  66.699  0.00  0.00    +0.317 C 
ATOM     22  O   UNL     1     -10.288  18.184  65.994  0.00  0.00    -0.250 OA
BRANCH  21  23
ATOM     23  O   UNL     1     -10.979  17.254  67.926  0.00  0.00    -0.447 OA
BRANCH  23  24
ATOM     24  C   UNL     1     -11.545  16.121  68.580  0.00  0.00    +0.226 C 
BRANCH  24  25
ATOM     25  C   UNL     1     -11.210  16.215  70.062  0.00  0.00    +0.120 C 
BRANCH  25  26
ATOM     26  N   UNL     1     -12.320  15.826  70.897  0.00  0.00    -0.265 NA
ATOM     27  C   UNL     1     -12.688  14.436  70.728  0.00  0.00    +0.105 C 
ATOM     28  C   UNL     1     -13.520  13.966  71.893  0.00  0.00    +0.159 C 
ATOM     29  O   UNL     1     -14.213  15.087  72.374  0.00  0.00    -0.351 OA
ATOM     30  C   UNL     1     -13.308  15.887  73.086  0.00  0.00    +0.159 C 
ATOM     31  C   UNL     1     -12.020  16.076  72.302  0.00  0.00    +0.105 C 
ENDBRANCH  25  26
ENDBRANCH  24  25
ENDBRANCH  23  24
ENDBRANCH  21  23
ENDBRANCH  20  21
ENDBRANCH  19  20
ENDBRANCH   2  19
TORSDOF 10
ENDMDL
MODEL 3
REMARK VINA RESULT:      -6.4      2.858      4.389
REMARK  Name = 
REMARK  10 active torsions:
REMARK  status: ('A' for Active; 'I' for Inactive)
REMARK    1  A    between atoms: O_2  and  C_3
REMARK    2  A    between atoms: C_10  and  C_11
REMARK    3  A    between atoms: C_11  and  C_12
REMARK    4  A    between atoms: C_13  and  C_15
REMARK    5  A    between atoms: C_15  and  C_16
REMARK    6  A    between atoms: C_16  and  C_17
REMARK    7  A    between atoms: C_17  and  O_19
REMARK    8  A    between atoms: O_19  and  C_20
REMARK    9  A    between atoms: C_20  and  C_21
REMARK   10  A    between atoms: C_21  and  N_22
REMARK                            x       y       z     vdW  Elec       q    Type
REMARK                         _______ _______ _______ _____ _____    ______ ____
ROOT
ATOM      1  C   UNL     1     -11.590  12.209  66.491  0.00  0.00    -0.030 C 
ATOM      2  C   UNL     1     -11.114  12.247  65.240  0.00  0.00    -0.047 C 
ATOM      3  C   UNL     1     -10.560  10.955  64.725  0.00  0.00    +0.026 C 
ENDROOT
BRANCH   1   4
ATOM      4  C   UNL     1     -11.006  11.351  67.543  0.00  0.00    +0.058 C 
BRANCH   4   6
ATOM      5  C   UNL     1     -11.659  11.300  69.950  0.00  0.00    +0.134 A 
ATOM      6  C   UNL     1     -11.103  11.990  68.893  0.00  0.00    +0.055 A 
ATOM      7  C   UNL     1     -11.040  13.371  69.027  0.00  0.00    +0.201 A 
ATOM      8  O   UNL     1     -10.217  14.056  68.133  0.00  0.00    -0.287 OA
ATOM      9  C   UNL     1     -11.745  14.052  70.009  0.00  0.00    +0.114 A 
ATOM     10  C   UNL     1     -12.188  15.451  70.071  0.00  0.00    +0.344 C 
ATOM     11  O   UNL     1     -13.351  15.447  70.845  0.00  0.00    -0.440 OA
ATOM     12  C   UNL     1     -13.524  14.199  71.472  0.00  0.00    +0.235 C 
ATOM     13  O   UNL     1     -11.988  16.292  69.143  0.00  0.00    -0.245 OA
ATOM     14  C   UNL     1     -12.436  13.309  70.957  0.00  0.00    +0.030 A 
ATOM     15  C   UNL     1     -12.426  11.920  70.929  0.00  0.00    +0.012 A 
ATOM     16  C   UNL     1     -13.341  11.119  71.802  0.00  0.00    +0.034 C 
BRANCH   5  18
ATOM     17  C   UNL     1     -10.273   9.324  70.464  0.00  0.00    +0.252 C 
ATOM     18  O   UNL     1     -11.475   9.918  69.994  0.00  0.00    -0.472 OA
ENDBRANCH   5  18
ENDBRANCH   4   6
ENDBRANCH   1   4
BRANCH   2  19
ATOM     19  C   UNL     1     -10.943  13.537  64.497  0.00  0.00    +0.033 C 
BRANCH  19  20
ATOM     20  C   UNL     1     -11.671  14.623  65.248  0.00  0.00    +0.114 C 
BRANCH  20  21
ATOM     21  C   UNL     1     -11.129  15.935  64.834  0.00  0.00    +0.317 C 
ATOM     22  O   UNL     1     -11.661  16.557  63.889  0.00  0.00    -0.250 OA
BRANCH  21  23
ATOM     23  O   UNL     1      -9.996  16.514  65.405  0.00  0.00    -0.447 OA
BRANCH  23  24
ATOM     24  C   UNL     1     -10.073  17.363  66.547  0.00  0.00    +0.226 C 
BRANCH  24  25
ATOM     25  C   UNL     1      -8.888  18.319  66.506  0.00  0.00    +0.120 C 
BRANCH  25  26
ATOM     26  N   UNL     1      -7.941  18.058  67.561  0.00  0.00    -0.265 NA
ATOM     27  C   UNL     1      -8.319  16.929  68.387  0.00  0.00    +0.105 C 
ATOM     28  C   UNL     1      -7.131  16.426  69.165  0.00  0.00    +0.159 C 
ATOM     29  O   UNL     1      -6.290  17.528  69.379  0.00  0.00    -0.351 OA
ATOM     30  C   UNL     1      -5.631  17.815  68.175  0.00  0.00    +0.159 C 
ATOM     31  C   UNL     1      -6.610  17.828  67.013  0.00  0.00    +0.105 C 
ENDBRANCH  25  26
ENDBRANCH  24  25
ENDBRANCH  23  24
ENDBRANCH  21  23
ENDBRANCH  20  21
ENDBRANCH  19  20
ENDBRANCH   2  19
TORSDOF 10
ENDMDL
MODEL 4
REMARK VINA RESULT:      -6.4      2.081      4.202
REMARK  Name = 
REMARK  10 active torsions:
REMARK  status: ('A' for Active; 'I' for Inactive)
REMARK    1  A    between atoms: O_2  and  C_3
REMARK    2  A    between atoms: C_10  and  C_11
REMARK    3  A    between atoms: C_11  and  C_12
REMARK    4  A    between atoms: C_13  and  C_15
REMARK    5  A    between atoms: C_15  and  C_16
REMARK    6  A    between atoms: C_16  and  C_17
REMARK    7  A    between atoms: C_17  and  O_19
REMARK    8  A    between atoms: O_19  and  C_20
REMARK    9  A    between atoms: C_20  and  C_21
REMARK   10  A    between atoms: C_21  and  N_22
REMARK                            x       y       z     vdW  Elec       q    Type
REMARK                         _______ _______ _______ _____ _____    ______ ____
ROOT
ATOM      1  C   UNL     1      -8.832  11.151  66.731  0.00  0.00    -0.030 C 
ATOM      2  C   UNL     1      -8.319  11.126  67.968  0.00  0.00    -0.047 C 
ATOM      3  C   UNL     1      -8.935  10.127  68.897  0.00  0.00    +0.026 C 
ENDROOT
BRANCH   1   4
ATOM      4  C   UNL     1     -10.257  10.877  66.451  0.00  0.00    +0.058 C 
BRANCH   4   6
ATOM      5  C   UNL     1     -10.928  13.191  65.804  0.00  0.00    +0.134 A 
ATOM      6  C   UNL     1     -11.099  12.101  66.632  0.00  0.00    +0.055 A 
ATOM      7  C   UNL     1     -11.745  12.342  67.838  0.00  0.00    +0.201 A 
ATOM      8  O   UNL     1     -12.204  11.230  68.543  0.00  0.00    -0.287 OA
ATOM      9  C   UNL     1     -11.947  13.626  68.325  0.00  0.00    +0.114 A 
ATOM     10  C   UNL     1     -12.172  14.103  69.695  0.00  0.00    +0.344 C 
ATOM     11  O   UNL     1     -11.651  15.399  69.736  0.00  0.00    -0.440 OA
ATOM     12  C   UNL     1     -11.350  15.852  68.438  0.00  0.00    +0.235 C 
ATOM     13  O   UNL     1     -12.188  13.342  70.710  0.00  0.00    -0.245 OA
ATOM     14  C   UNL     1     -11.597  14.699  67.516  0.00  0.00    +0.030 A 
ATOM     15  C   UNL     1     -11.057  14.500  66.251  0.00  0.00    +0.012 A 
ATOM     16  C   UNL     1     -10.472  15.635  65.469  0.00  0.00    +0.034 C 
BRANCH   5  18
ATOM     17  C   UNL     1     -11.503  12.570  63.486  0.00  0.00    +0.252 C 
ATOM     18  O   UNL     1     -10.562  12.951  64.479  0.00  0.00    -0.472 OA
ENDBRANCH   5  18
ENDBRANCH   4   6
ENDBRANCH   1   4
BRANCH   2  19
ATOM     19  C   UNL     1      -7.359  12.172  68.448  0.00  0.00    +0.033 C 
BRANCH  19  20
ATOM     20  C   UNL     1      -8.042  13.515  68.385  0.00  0.00    +0.114 C 
BRANCH  20  21
ATOM     21  C   UNL     1      -7.117  14.491  67.772  0.00  0.00    +0.317 C 
ATOM     22  O   UNL     1      -6.009  14.108  67.335  0.00  0.00    -0.250 OA
BRANCH  21  23
ATOM     23  O   UNL     1      -7.378  15.859  67.699  0.00  0.00    -0.447 OA
BRANCH  23  24
ATOM     24  C   UNL     1      -7.011  16.641  66.565  0.00  0.00    +0.226 C 
BRANCH  24  25
ATOM     25  C   UNL     1      -7.165  18.110  66.935  0.00  0.00    +0.120 C 
BRANCH  25  26
ATOM     26  N   UNL     1      -8.544  18.479  67.138  0.00  0.00    -0.265 NA
ATOM     27  C   UNL     1      -8.804  18.965  68.477  0.00  0.00    +0.105 C 
ATOM     28  C   UNL     1     -10.099  19.733  68.516  0.00  0.00    +0.159 C 
ATOM     29  O   UNL     1     -10.924  19.188  67.521  0.00  0.00    -0.351 OA
ATOM     30  C   UNL     1     -10.463  19.641  66.276  0.00  0.00    +0.159 C 
ATOM     31  C   UNL     1      -8.955  19.490  66.171  0.00  0.00    +0.105 C 
ENDBRANCH  25  26
ENDBRANCH  24  25
ENDBRANCH  23  24
ENDBRANCH  21  23
ENDBRANCH  20  21
ENDBRANCH  19  20
ENDBRANCH   2  19
TORSDOF 10
ENDMDL
MODEL 5
REMARK VINA RESULT:      -6.3      3.636      5.495
REMARK  Name = 
REMARK  10 active torsions:
REMARK  status: ('A' for Active; 'I' for Inactive)
REMARK    1  A    between atoms: O_2  and  C_3
REMARK    2  A    between atoms: C_10  and  C_11
REMARK    3  A    between atoms: C_11  and  C_12
REMARK    4  A    between atoms: C_13  and  C_15
REMARK    5  A    between atoms: C_15  and  C_16
REMARK    6  A    between atoms: C_16  and  C_17
REMARK    7  A    between atoms: C_17  and  O_19
REMARK    8  A    between atoms: O_19  and  C_20
REMARK    9  A    between atoms: C_20  and  C_21
REMARK   10  A    between atoms: C_21  and  N_22
REMARK                            x       y       z     vdW  Elec       q    Type
REMARK                         _______ _______ _______ _____ _____    ______ ____
ROOT
ATOM      1  C   UNL     1     -11.042  13.305  67.235  0.00  0.00    -0.030 C 
ATOM      2  C   UNL     1     -11.196  14.121  66.185  0.00  0.00    -0.047 C 
ATOM      3  C   UNL     1     -12.530  14.051  65.509  0.00  0.00    +0.026 C 
ENDROOT
BRANCH   1   4
ATOM      4  C   UNL     1     -11.680  11.974  67.314  0.00  0.00    +0.058 C 
BRANCH   4   6
ATOM      5  C   UNL     1     -10.217  10.058  67.958  0.00  0.00    +0.134 A 
ATOM      6  C   UNL     1     -11.024  11.109  68.344  0.00  0.00    +0.055 A 
ATOM      7  C   UNL     1     -11.515  11.059  69.642  0.00  0.00    +0.201 A 
ATOM      8  O   UNL     1     -12.064  12.235  70.156  0.00  0.00    -0.287 OA
ATOM      9  C   UNL     1     -11.457   9.906  70.412  0.00  0.00    +0.114 A 
ATOM     10  C   UNL     1     -12.265   9.484  71.563  0.00  0.00    +0.344 C 
ATOM     11  O   UNL     1     -12.283   8.087  71.522  0.00  0.00    -0.440 OA
ATOM     12  C   UNL     1     -11.348   7.608  70.587  0.00  0.00    +0.235 C 
ATOM     13  O   UNL     1     -13.225  10.166  72.034  0.00  0.00    -0.245 OA
ATOM     14  C   UNL     1     -10.774   8.809  69.903  0.00  0.00    +0.030 A 
ATOM     15  C   UNL     1     -10.165   8.858  68.654  0.00  0.00    +0.012 A 
ATOM     16  C   UNL     1      -9.626   7.621  68.005  0.00  0.00    +0.034 C 
BRANCH   5  18
ATOM     17  C   UNL     1      -8.193  10.830  66.776  0.00  0.00    +0.252 C 
ATOM     18  O   UNL     1      -9.470  10.207  66.789  0.00  0.00    -0.472 OA
ENDBRANCH   5  18
ENDBRANCH   4   6
ENDBRANCH   1   4
BRANCH   2  19
ATOM     19  C   UNL     1     -10.045  14.878  65.595  0.00  0.00    +0.033 C 
BRANCH  19  20
ATOM     20  C   UNL     1      -9.387  15.679  66.690  0.00  0.00    +0.114 C 
BRANCH  20  21
ATOM     21  C   UNL     1     -10.104  16.964  66.839  0.00  0.00    +0.317 C 
ATOM     22  O   UNL     1      -9.873  17.900  66.042  0.00  0.00    -0.250 OA
BRANCH  21  23
ATOM     23  O   UNL     1     -11.002  17.229  67.872  0.00  0.00    -0.447 OA
BRANCH  23  24
ATOM     24  C   UNL     1     -10.839  16.679  69.177  0.00  0.00    +0.226 C 
BRANCH  24  25
ATOM     25  C   UNL     1     -11.999  15.726  69.436  0.00  0.00    +0.120 C 
BRANCH  25  26
ATOM     26  N   UNL     1     -12.601  15.942  70.728  0.00  0.00    -0.265 NA
ATOM     27  C   UNL     1     -13.788  15.137  70.935  0.00  0.00    +0.105 C 
ATOM     28  C   UNL     1     -14.119  15.055  72.402  0.00  0.00    +0.159 C 
ATOM     29  O   UNL     1     -13.654  16.240  72.990  0.00  0.00    -0.351 OA
ATOM     30  C   UNL     1     -12.258  16.156  73.097  0.00  0.00    +0.159 C 
ATOM     31  C   UNL     1     -11.645  15.669  71.794  0.00  0.00    +0.105 C 
ENDBRANCH  25  26
ENDBRANCH  24  25
ENDBRANCH  23  24
ENDBRANCH  21  23
ENDBRANCH  20  21
ENDBRANCH  19  20
ENDBRANCH   2  19
TORSDOF 10
ENDMDL
MODEL 6
REMARK VINA RESULT:      -6.3      3.997      6.514
REMARK  Name = 
REMARK  10 active torsions:
REMARK  status: ('A' for Active; 'I' for Inactive)
REMARK    1  A    between atoms: O_2  and  C_3
REMARK    2  A    between atoms: C_10  and  C_11
REMARK    3  A    between atoms: C_11  and  C_12
REMARK    4  A    between atoms: C_13  and  C_15
REMARK    5  A    between atoms: C_15  and  C_16
REMARK    6  A    between atoms: C_16  and  C_17
REMARK    7  A    between atoms: C_17  and  O_19
REMARK    8  A    between atoms: O_19  and  C_20
REMARK    9  A    between atoms: C_20  and  C_21
REMARK   10  A    between atoms: C_21  and  N_22
REMARK                            x       y       z     vdW  Elec       q    Type
REMARK                         _______ _______ _______ _____ _____    ______ ____
ROOT
ATOM      1  C   UNL     1     -12.365  13.023  71.114  0.00  0.00    -0.030 C 
ATOM      2  C   UNL     1     -12.893  14.225  71.375  0.00  0.00    -0.047 C 
ATOM      3  C   UNL     1     -13.893  14.259  72.489  0.00  0.00    +0.026 C 
ENDROOT
BRANCH   1   4
ATOM      4  C   UNL     1     -13.127  11.766  71.267  0.00  0.00    +0.058 C 
BRANCH   4   6
ATOM      5  C   UNL     1     -12.228   9.473  71.664  0.00  0.00    +0.134 A 
ATOM      6  C   UNL     1     -12.322  10.577  70.843  0.00  0.00    +0.055 A 
ATOM      7  C   UNL     1     -11.342  10.700  69.866  0.00  0.00    +0.201 A 
ATOM      8  O   UNL     1     -11.583  11.616  68.842  0.00  0.00    -0.287 OA
ATOM      9  C   UNL     1     -10.180   9.942  69.884  0.00  0.00    +0.114 A 
ATOM     10  C   UNL     1      -8.868  10.190  69.272  0.00  0.00    +0.344 C 
ATOM     11  O   UNL     1      -7.938   9.554  70.098  0.00  0.00    -0.440 OA
ATOM     12  C   UNL     1      -8.590   8.725  71.030  0.00  0.00    +0.235 C 
ATOM     13  O   UNL     1      -8.590  11.234  68.608  0.00  0.00    -0.245 OA
ATOM     14  C   UNL     1     -10.058   8.947  70.845  0.00  0.00    +0.030 A 
ATOM     15  C   UNL     1     -11.069   8.713  71.769  0.00  0.00    +0.012 A 
ATOM     16  C   UNL     1     -10.856   7.805  72.940  0.00  0.00    +0.034 C 
BRANCH   5  18
ATOM     17  C   UNL     1     -14.394   8.333  71.977  0.00  0.00    +0.252 C 
ATOM     18  O   UNL     1     -13.334   9.151  72.451  0.00  0.00    -0.472 OA
ENDBRANCH   5  18
ENDBRANCH   4   6
ENDBRANCH   1   4
BRANCH   2  19
ATOM     19  C   UNL     1     -12.667  15.402  70.474  0.00  0.00    +0.033 C 
BRANCH  19  20
ATOM     20  C   UNL     1     -11.251  15.885  70.663  0.00  0.00    +0.114 C 
BRANCH  20  21
ATOM     21  C   UNL     1     -10.684  16.229  69.342  0.00  0.00    +0.317 C 
ATOM     22  O   UNL     1     -11.341  16.941  68.550  0.00  0.00    -0.250 OA
BRANCH  21  23
ATOM     23  O   UNL     1      -9.458  15.751  68.882  0.00  0.00    -0.447 OA
BRANCH  23  24
ATOM     24  C   UNL     1      -9.329  14.482  68.246  0.00  0.00    +0.226 C 
BRANCH  24  25
ATOM     25  C   UNL     1      -9.402  14.700  66.740  0.00  0.00    +0.120 C 
BRANCH  25  26
ATOM     26  N   UNL     1     -10.710  14.402  66.211  0.00  0.00    -0.265 NA
ATOM     27  C   UNL     1     -11.098  15.295  65.139  0.00  0.00    +0.105 C 
ATOM     28  C   UNL     1     -12.228  14.699  64.340  0.00  0.00    +0.159 C 
ATOM     29  O   UNL     1     -12.959  13.885  65.216  0.00  0.00    -0.351 OA
ATOM     30  C   UNL     1     -12.226  12.708  65.432  0.00  0.00    +0.159 C 
ATOM     31  C   UNL     1     -10.772  13.025  65.734  0.00  0.00    +0.105 C 
ENDBRANCH  25  26
ENDBRANCH  24  25
ENDBRANCH  23  24
ENDBRANCH  21  23
ENDBRANCH  20  21
ENDBRANCH  19  20
ENDBRANCH   2  19
TORSDOF 10
ENDMDL
MODEL 7
REMARK VINA RESULT:      -6.3      3.193      5.006
REMARK  Name = 
REMARK  10 active torsions:
REMARK  status: ('A' for Active; 'I' for Inactive)
REMARK    1  A    between atoms: O_2  and  C_3
REMARK    2  A    between atoms: C_10  and  C_11
REMARK    3  A    between atoms: C_11  and  C_12
REMARK    4  A    between atoms: C_13  and  C_15
REMARK    5  A    between atoms: C_15  and  C_16
REMARK    6  A    between atoms: C_16  and  C_17
REMARK    7  A    between atoms: C_17  and  O_19
REMARK    8  A    between atoms: O_19  and  C_20
REMARK    9  A    between atoms: C_20  and  C_21
REMARK   10  A    between atoms: C_21  and  N_22
REMARK                            x       y       z     vdW  Elec       q    Type
REMARK                         _______ _______ _______ _____ _____    ______ ____
ROOT
ATOM      1  C   UNL     1     -10.626  15.688  67.182  0.00  0.00    -0.030 C 
ATOM      2  C   UNL     1      -9.700  15.333  66.283  0.00  0.00    -0.047 C 
ATOM      3  C   UNL     1     -10.200  14.504  65.140  0.00  0.00    +0.026 C 
ENDROOT
BRANCH   1   4
ATOM      4  C   UNL     1     -11.774  14.823  67.531  0.00  0.00    +0.058 C 
BRANCH   4   6
ATOM      5  C   UNL     1     -11.409  12.871  69.041  0.00  0.00    +0.134 A 
ATOM      6  C   UNL     1     -11.620  14.227  68.895  0.00  0.00    +0.055 A 
ATOM      7  C   UNL     1     -12.087  14.900  70.017  0.00  0.00    +0.201 A 
ATOM      8  O   UNL     1     -12.012  16.292  69.996  0.00  0.00    -0.287 OA
ATOM      9  C   UNL     1     -12.593  14.231  71.123  0.00  0.00    +0.114 A 
ATOM     10  C   UNL     1     -13.515  14.683  72.173  0.00  0.00    +0.344 C 
ATOM     11  O   UNL     1     -14.197  13.540  72.597  0.00  0.00    -0.440 OA
ATOM     12  C   UNL     1     -13.596  12.382  72.071  0.00  0.00    +0.235 C 
ATOM     13  O   UNL     1     -14.037  15.839  72.199  0.00  0.00    -0.245 OA
ATOM     14  C   UNL     1     -12.513  12.845  71.148  0.00  0.00    +0.030 A 
ATOM     15  C   UNL     1     -11.943  12.139  70.095  0.00  0.00    +0.012 A 
ATOM     16  C   UNL     1     -12.054  10.649  70.009  0.00  0.00    +0.034 C 
BRANCH   5  18
ATOM     17  C   UNL     1      -9.260  12.068  68.133  0.00  0.00    +0.252 C 
ATOM     18  O   UNL     1     -10.671  12.217  68.055  0.00  0.00    -0.472 OA
ENDBRANCH   5  18
ENDBRANCH   4   6
ENDBRANCH   1   4
BRANCH   2  19
ATOM     19  C   UNL     1      -8.238  15.558  66.521  0.00  0.00    +0.033 C 
BRANCH  19  20
ATOM     20  C   UNL     1      -7.950  15.334  67.985  0.00  0.00    +0.114 C 
BRANCH  20  21
ATOM     21  C   UNL     1      -6.496  15.473  68.212  0.00  0.00    +0.317 C 
ATOM     22  O   UNL     1      -5.855  14.533  68.731  0.00  0.00    -0.250 OA
BRANCH  21  23
ATOM     23  O   UNL     1      -5.782  16.637  67.932  0.00  0.00    -0.447 OA
BRANCH  23  24
ATOM     24  C   UNL     1      -6.151  17.902  68.477  0.00  0.00    +0.226 C 
BRANCH  24  25
ATOM     25  C   UNL     1      -6.477  18.837  67.320  0.00  0.00    +0.120 C 
BRANCH  25  26
ATOM     26  N   UNL     1      -7.802  19.395  67.429  0.00  0.00    -0.265 NA
ATOM     27  C   UNL     1      -8.553  19.303  66.194  0.00  0.00    +0.105 C 
ATOM     28  C   UNL     1     -10.026  19.477  66.459  0.00  0.00    +0.159 C 
ATOM     29  O   UNL     1     -10.140  20.303  67.587  0.00  0.00    -0.351 OA
ATOM     30  C   UNL     1      -9.824  19.539  68.720  0.00  0.00    +0.159 C 
ATOM     31  C   UNL     1      -8.551  18.740  68.496  0.00  0.00    +0.105 C 
ENDBRANCH  25  26
ENDBRANCH  24  25
ENDBRANCH  23  24
ENDBRANCH  21  23
ENDBRANCH  20  21
ENDBRANCH  19  20
ENDBRANCH   2  19
TORSDOF 10
ENDMDL
MODEL 8
REMARK VINA RESULT:      -6.2      1.705      4.433
REMARK  Name = 
REMARK  10 active torsions:
REMARK  status: ('A' for Active; 'I' for Inactive)
REMARK    1  A    between atoms: O_2  and  C_3
REMARK    2  A    between atoms: C_10  and  C_11
REMARK    3  A    between atoms: C_11  and  C_12
REMARK    4  A    between atoms: C_13  and  C_15
REMARK    5  A    between atoms: C_15  and  C_16
REMARK    6  A    between atoms: C_16  and  C_17
REMARK    7  A    between atoms: C_17  and  O_19
REMARK    8  A    between atoms: O_19  and  C_20
REMARK    9  A    between atoms: C_20  and  C_21
REMARK   10  A    between atoms: C_21  and  N_22
REMARK                            x       y       z     vdW  Elec       q    Type
REMARK                         _______ _______ _______ _____ _____    ______ ____
ROOT
ATOM      1  C   UNL     1     -12.117  12.851  66.558  0.00  0.00    -0.030 C 
ATOM      2  C   UNL     1     -11.541  12.908  65.350  0.00  0.00    -0.047 C 
ATOM      3  C   UNL     1     -10.884  11.643  64.893  0.00  0.00    +0.026 C 
ENDROOT
BRANCH   1   4
ATOM      4  C   UNL     1     -11.579  12.027  67.661  0.00  0.00    +0.058 C 
BRANCH   4   6
ATOM      5  C   UNL     1     -10.670  13.956  68.956  0.00  0.00    +0.134 A 
ATOM      6  C   UNL     1     -10.462  12.723  68.374  0.00  0.00    +0.055 A 
ATOM      7  C   UNL     1      -9.140  12.380  68.121  0.00  0.00    +0.201 A 
ATOM      8  O   UNL     1      -8.879  11.041  67.829  0.00  0.00    -0.287 OA
ATOM      9  C   UNL     1      -8.112  13.310  68.167  0.00  0.00    +0.114 A 
ATOM     10  C   UNL     1      -6.788  13.304  67.531  0.00  0.00    +0.344 C 
ATOM     11  O   UNL     1      -6.460  14.647  67.326  0.00  0.00    -0.440 OA
ATOM     12  C   UNL     1      -7.359  15.486  68.009  0.00  0.00    +0.235 C 
ATOM     13  O   UNL     1      -6.381  12.378  66.766  0.00  0.00    -0.245 OA
ATOM     14  C   UNL     1      -8.407  14.596  68.600  0.00  0.00    +0.030 A 
ATOM     15  C   UNL     1      -9.698  14.949  68.977  0.00  0.00    +0.012 A 
ATOM     16  C   UNL     1     -10.070  16.377  69.228  0.00  0.00    +0.034 C 
BRANCH   5  18
ATOM     17  C   UNL     1     -12.320  13.750  70.779  0.00  0.00    +0.252 C 
ATOM     18  O   UNL     1     -11.930  14.217  69.495  0.00  0.00    -0.472 OA
ENDBRANCH   5  18
ENDBRANCH   4   6
ENDBRANCH   1   4
BRANCH   2  19
ATOM     19  C   UNL     1     -11.374  14.201  64.613  0.00  0.00    +0.033 C 
BRANCH  19  20
ATOM     20  C   UNL     1     -10.297  15.007  65.295  0.00  0.00    +0.114 C 
BRANCH  20  21
ATOM     21  C   UNL     1     -10.593  16.444  65.119  0.00  0.00    +0.317 C 
ATOM     22  O   UNL     1     -11.391  16.810  64.228  0.00  0.00    -0.250 OA
BRANCH  21  23
ATOM     23  O   UNL     1      -9.979  17.453  65.861  0.00  0.00    -0.447 OA
BRANCH  23  24
ATOM     24  C   UNL     1     -10.521  18.768  65.944  0.00  0.00    +0.226 C 
BRANCH  24  25
ATOM     25  C   UNL     1      -9.868  19.474  67.125  0.00  0.00    +0.120 C 
BRANCH  25  26
ATOM     26  N   UNL     1      -8.466  19.158  67.239  0.00  0.00    -0.265 NA
ATOM     27  C   UNL     1      -7.652  19.860  66.268  0.00  0.00    +0.105 C 
ATOM     28  C   UNL     1      -6.206  19.855  66.691  0.00  0.00    +0.159 C 
ATOM     29  O   UNL     1      -6.006  18.684  67.438  0.00  0.00    -0.351 OA
ATOM     30  C   UNL     1      -6.582  18.871  68.703  0.00  0.00    +0.159 C 
ATOM     31  C   UNL     1      -7.978  19.458  68.581  0.00  0.00    +0.105 C 
ENDBRANCH  25  26
ENDBRANCH  24  25
ENDBRANCH  23  24
ENDBRANCH  21  23
ENDBRANCH  20  21
ENDBRANCH  19  20
ENDBRANCH   2  19
TORSDOF 10
ENDMDL
MODEL 9
REMARK VINA RESULT:      -6.1      2.288      3.418
REMARK  Name = 
REMARK  10 active torsions:
REMARK  status: ('A' for Active; 'I' for Inactive)
REMARK    1  A    between atoms: O_2  and  C_3
REMARK    2  A    between atoms: C_10  and  C_11
REMARK    3  A    between atoms: C_11  and  C_12
REMARK    4  A    between atoms: C_13  and  C_15
REMARK    5  A    between atoms: C_15  and  C_16
REMARK    6  A    between atoms: C_16  and  C_17
REMARK    7  A    between atoms: C_17  and  O_19
REMARK    8  A    between atoms: O_19  and  C_20
REMARK    9  A    between atoms: C_20  and  C_21
REMARK   10  A    between atoms: C_21  and  N_22
REMARK                            x       y       z     vdW  Elec       q    Type
REMARK                         _______ _______ _______ _____ _____    ______ ____
ROOT
ATOM      1  C   UNL     1     -10.981  15.346  67.645  0.00  0.00    -0.030 C 
ATOM      2  C   UNL     1     -10.768  16.487  68.312  0.00  0.00    -0.047 C 
ATOM      3  C   UNL     1     -10.926  16.399  69.799  0.00  0.00    +0.026 C 
ENDROOT
BRANCH   1   4
ATOM      4  C   UNL     1     -11.971  14.339  68.080  0.00  0.00    +0.058 C 
BRANCH   4   6
ATOM      5  C   UNL     1     -11.032  12.086  67.564  0.00  0.00    +0.134 A 
ATOM      6  C   UNL     1     -11.905  13.103  67.238  0.00  0.00    +0.055 A 
ATOM      7  C   UNL     1     -12.377  13.112  65.932  0.00  0.00    +0.201 A 
ATOM      8  O   UNL     1     -13.479  13.922  65.663  0.00  0.00    -0.287 OA
ATOM      9  C   UNL     1     -11.798  12.343  64.931  0.00  0.00    +0.114 A 
ATOM     10  C   UNL     1     -11.808  12.510  63.472  0.00  0.00    +0.344 C 
ATOM     11  O   UNL     1     -10.613  11.948  63.018  0.00  0.00    -0.440 OA
ATOM     12  C   UNL     1      -9.982  11.227  64.048  0.00  0.00    +0.235 C 
ATOM     13  O   UNL     1     -12.377  13.477  62.880  0.00  0.00    -0.245 OA
ATOM     14  C   UNL     1     -10.796  11.450  65.285  0.00  0.00    +0.030 A 
ATOM     15  C   UNL     1     -10.377  11.324  66.604  0.00  0.00    +0.012 A 
ATOM     16  C   UNL     1      -9.154  10.537  66.958  0.00  0.00    +0.034 C 
BRANCH   5  18
ATOM     17  C   UNL     1     -11.603  11.045  69.727  0.00  0.00    +0.252 C 
ATOM     18  O   UNL     1     -10.769  11.860  68.915  0.00  0.00    -0.472 OA
ENDBRANCH   5  18
ENDBRANCH   4   6
ENDBRANCH   1   4
BRANCH   2  19
ATOM     19  C   UNL     1     -10.607  17.799  67.607  0.00  0.00    +0.033 C 
BRANCH  19  20
ATOM     20  C   UNL     1      -9.205  17.878  67.056  0.00  0.00    +0.114 C 
BRANCH  20  21
ATOM     21  C   UNL     1      -8.541  19.077  67.611  0.00  0.00    +0.317 C 
ATOM     22  O   UNL     1      -9.040  19.663  68.597  0.00  0.00    -0.250 OA
BRANCH  21  23
ATOM     23  O   UNL     1      -7.397  19.649  67.056  0.00  0.00    -0.447 OA
BRANCH  23  24
ATOM     24  C   UNL     1      -6.857  20.878  67.534  0.00  0.00    +0.226 C 
BRANCH  24  25
ATOM     25  C   UNL     1      -5.431  20.618  68.002  0.00  0.00    +0.120 C 
BRANCH  25  26
ATOM     26  N   UNL     1      -5.261  20.893  69.407  0.00  0.00    -0.265 NA
ATOM     27  C   UNL     1      -6.069  20.034  70.249  0.00  0.00    +0.105 C 
ATOM     28  C   UNL     1      -5.550  20.042  71.662  0.00  0.00    +0.159 C 
ATOM     29  O   UNL     1      -4.955  21.296  71.868  0.00  0.00    -0.351 OA
ATOM     30  C   UNL     1      -3.719  21.307  71.203  0.00  0.00    +0.159 C 
ATOM     31  C   UNL     1      -3.861  20.762  69.792  0.00  0.00    +0.105 C 
ENDBRANCH  25  26
ENDBRANCH  24  25
ENDBRANCH  23  24
ENDBRANCH  21  23
ENDBRANCH  20  21
ENDBRANCH  19  20
ENDBRANCH   2  19
TORSDOF 10
ENDMDL
