MODEL 1
REMARK VINA RESULT:      -6.5      0.000      0.000
REMARK  Name = 
REMARK  6 active torsions:
REMARK  status: ('A' for Active; 'I' for Inactive)
REMARK    1  A    between atoms: C_2  and  O_3
REMARK    2  A    between atoms: O_3  and  C_4
REMARK    3  A    between atoms: N_6  and  C_7
REMARK    4  A    between atoms: C_10  and  N_11
REMARK    5  A    between atoms: N_11  and  C_12
REMARK    6  A    between atoms: C_12  and  C_13
REMARK                            x       y       z     vdW  Elec       q    Type
REMARK                         _______ _______ _______ _____ _____    ______ ____
ROOT
ATOM      1  C   UNL     1     -10.192  14.902  65.680  0.00  0.00    +0.093 A 
ATOM      2  C   UNL     1     -10.258  16.180  66.220  0.00  0.00    +0.106 A 
ATOM      3  N   UNL     1     -10.560  17.224  65.290  0.00  0.00    -0.127 NA
ATOM      4  C   UNL     1     -10.218  16.402  67.591  0.00  0.00    +0.035 A 
ATOM      5  C   UNL     1      -9.937  15.348  68.452  0.00  0.00    +0.067 A 
ATOM      6  C   UNL     1      -9.525  14.149  67.881  0.00  0.00    +0.018 A 
ATOM      7  C   UNL     1      -9.653  13.932  66.515  0.00  0.00    +0.019 A 
ENDROOT
BRANCH   1   9
ATOM      8  C   UNL     1     -12.312  13.816  64.939  0.00  0.00    +0.425 C 
ATOM      9  N   UNL     1     -11.083  14.488  64.636  0.00  0.00    -0.141 NA
ATOM     10  O   UNL     1     -12.836  14.106  66.040  0.00  0.00    -0.224 OA
BRANCH   8  11
ATOM     11  O   UNL     1     -12.749  12.697  64.267  0.00  0.00    -0.433 OA
BRANCH  11  13
ATOM     12  C   UNL     1     -10.951  11.164  64.052  0.00  0.00    +0.051 C 
ATOM     13  C   UNL     1     -11.972  12.002  63.299  0.00  0.00    +0.210 C 
ENDBRANCH  11  13
ENDBRANCH   8  11
ENDBRANCH   1   9
BRANCH   5  14
ATOM     14  N   UNL     1     -10.189  15.443  69.839  0.00  0.00    -0.233 NA
BRANCH  14  15
ATOM     15  C   UNL     1     -10.915  16.519  70.462  0.00  0.00    +0.139 C 
BRANCH  15  16
ATOM     16  C   UNL     1     -12.039  16.001  71.263  0.00  0.00    -0.001 A 
ATOM     17  C   UNL     1     -13.107  15.440  70.578  0.00  0.00    -0.000 A 
ATOM     18  C   UNL     1     -13.929  14.539  71.242  0.00  0.00    +0.029 A 
ATOM     19  C   UNL     1     -13.562  13.996  72.469  0.00  0.00    +0.140 A 
ATOM     20  F   UNL     1     -13.754  12.667  72.719  0.00  0.00    -0.204 F 
ATOM     21  C   UNL     1     -12.657  14.751  73.202  0.00  0.00    +0.029 A 
ATOM     22  C   UNL     1     -12.026  15.846  72.624  0.00  0.00    -0.000 A 
ENDBRANCH  15  16
ENDBRANCH  14  15
ENDBRANCH   5  14
TORSDOF 6
ENDMDL
MODEL 2
REMARK VINA RESULT:      -6.5      3.622      5.084
REMARK  Name = 
REMARK  6 active torsions:
REMARK  status: ('A' for Active; 'I' for Inactive)
REMARK    1  A    between atoms: C_2  and  O_3
REMARK    2  A    between atoms: O_3  and  C_4
REMARK    3  A    between atoms: N_6  and  C_7
REMARK    4  A    between atoms: C_10  and  N_11
REMARK    5  A    between atoms: N_11  and  C_12
REMARK    6  A    between atoms: C_12  and  C_13
REMARK                            x       y       z     vdW  Elec       q    Type
REMARK                         _______ _______ _______ _____ _____    ______ ____
ROOT
ATOM      1  C   UNL     1     -10.622  14.817  66.438  0.00  0.00    +0.093 A 
ATOM      2  C   UNL     1      -9.657  13.971  66.967  0.00  0.00    +0.106 A 
ATOM      3  N   UNL     1      -8.357  14.547  67.128  0.00  0.00    -0.127 NA
ATOM      4  C   UNL     1      -9.975  12.717  67.475  0.00  0.00    +0.035 A 
ATOM      5  C   UNL     1     -11.259  12.211  67.306  0.00  0.00    +0.067 A 
ATOM      6  C   UNL     1     -12.117  12.914  66.469  0.00  0.00    +0.018 A 
ATOM      7  C   UNL     1     -11.802  14.198  66.044  0.00  0.00    +0.019 A 
ENDROOT
BRANCH   1   9
ATOM      8  C   UNL     1     -10.498  17.219  65.776  0.00  0.00    +0.425 C 
ATOM      9  N   UNL     1     -10.661  16.209  66.780  0.00  0.00    -0.141 NA
ATOM     10  O   UNL     1     -10.891  16.914  64.625  0.00  0.00    -0.224 OA
BRANCH   8  11
ATOM     11  O   UNL     1      -9.687  18.320  65.934  0.00  0.00    -0.433 OA
BRANCH  11  13
ATOM     12  C   UNL     1     -10.082  19.932  67.630  0.00  0.00    +0.051 C 
ATOM     13  C   UNL     1     -10.176  19.640  66.140  0.00  0.00    +0.210 C 
ENDBRANCH  11  13
ENDBRANCH   8  11
ENDBRANCH   1   9
BRANCH   5  14
ATOM     14  N   UNL     1     -11.719  11.106  68.058  0.00  0.00    -0.233 NA
BRANCH  14  15
ATOM     15  C   UNL     1     -10.870  10.236  68.827  0.00  0.00    +0.139 C 
BRANCH  15  16
ATOM     16  C   UNL     1     -11.362  10.109  70.212  0.00  0.00    -0.001 A 
ATOM     17  C   UNL     1     -12.296  11.039  70.645  0.00  0.00    -0.000 A 
ATOM     18  C   UNL     1     -13.126  10.708  71.709  0.00  0.00    +0.029 A 
ATOM     19  C   UNL     1     -13.221   9.400  72.171  0.00  0.00    +0.140 A 
ATOM     20  F   UNL     1     -14.438   8.868  72.486  0.00  0.00    -0.204 F 
ATOM     21  C   UNL     1     -12.124   8.595  71.893  0.00  0.00    +0.029 A 
ATOM     22  C   UNL     1     -11.128   9.038  71.032  0.00  0.00    -0.000 A 
ENDBRANCH  15  16
ENDBRANCH  14  15
ENDBRANCH   5  14
TORSDOF 6
ENDMDL
MODEL 3
REMARK VINA RESULT:      -6.4      2.193      3.000
REMARK  Name = 
REMARK  6 active torsions:
REMARK  status: ('A' for Active; 'I' for Inactive)
REMARK    1  A    between atoms: C_2  and  O_3
REMARK    2  A    between atoms: O_3  and  C_4
REMARK    3  A    between atoms: N_6  and  C_7
REMARK    4  A    between atoms: C_10  and  N_11
REMARK    5  A    between atoms: N_11  and  C_12
REMARK    6  A    between atoms: C_12  and  C_13
REMARK                            x       y       z     vdW  Elec       q    Type
REMARK                         _______ _______ _______ _____ _____    ______ ____
ROOT
ATOM      1  C   UNL     1     -10.946  13.388  64.554  0.00  0.00    +0.093 A 
ATOM      2  C   UNL     1     -12.173  13.361  65.204  0.00  0.00    +0.106 A 
ATOM      3  N   UNL     1     -13.198  12.606  64.550  0.00  0.00    -0.127 NA
ATOM      4  C   UNL     1     -12.339  13.873  66.485  0.00  0.00    +0.035 A 
ATOM      5  C   UNL     1     -11.304  14.585  67.082  0.00  0.00    +0.067 A 
ATOM      6  C   UNL     1     -10.211  14.909  66.287  0.00  0.00    +0.018 A 
ATOM      7  C   UNL     1     -10.036  14.318  65.042  0.00  0.00    +0.019 A 
ENDROOT
BRANCH   1   9
ATOM      8  C   UNL     1      -9.769  11.189  64.567  0.00  0.00    +0.425 C 
ATOM      9  N   UNL     1     -10.445  12.238  63.861  0.00  0.00    -0.141 NA
ATOM     10  O   UNL     1     -10.121  11.017  65.758  0.00  0.00    -0.224 OA
BRANCH   8  11
ATOM     11  O   UNL     1      -8.598  10.613  64.129  0.00  0.00    -0.433 OA
BRANCH  11  13
ATOM     12  C   UNL     1      -8.090  10.523  61.812  0.00  0.00    +0.051 C 
ATOM     13  C   UNL     1      -8.523   9.716  63.026  0.00  0.00    +0.210 C 
ENDBRANCH  11  13
ENDBRANCH   8  11
ENDBRANCH   1   9
BRANCH   5  14
ATOM     14  N   UNL     1     -11.298  14.850  68.470  0.00  0.00    -0.233 NA
BRANCH  14  15
ATOM     15  C   UNL     1     -11.625  13.882  69.484  0.00  0.00    +0.139 C 
BRANCH  15  16
ATOM     16  C   UNL     1     -12.303  14.524  70.625  0.00  0.00    -0.001 A 
ATOM     17  C   UNL     1     -13.085  13.718  71.439  0.00  0.00    -0.000 A 
ATOM     18  C   UNL     1     -13.340  14.128  72.741  0.00  0.00    +0.029 A 
ATOM     19  C   UNL     1     -12.631  15.175  73.320  0.00  0.00    +0.140 A 
ATOM     20  F   UNL     1     -12.185  15.076  74.607  0.00  0.00    -0.204 F 
ATOM     21  C   UNL     1     -12.073  16.077  72.424  0.00  0.00    +0.029 A 
ATOM     22  C   UNL     1     -12.064  15.799  71.063  0.00  0.00    -0.000 A 
ENDBRANCH  15  16
ENDBRANCH  14  15
ENDBRANCH   5  14
TORSDOF 6
ENDMDL
MODEL 4
REMARK VINA RESULT:      -6.3      2.536      4.094
REMARK  Name = 
REMARK  6 active torsions:
REMARK  status: ('A' for Active; 'I' for Inactive)
REMARK    1  A    between atoms: C_2  and  O_3
REMARK    2  A    between atoms: O_3  and  C_4
REMARK    3  A    between atoms: N_6  and  C_7
REMARK    4  A    between atoms: C_10  and  N_11
REMARK    5  A    between atoms: N_11  and  C_12
REMARK    6  A    between atoms: C_12  and  C_13
REMARK                            x       y       z     vdW  Elec       q    Type
REMARK                         _______ _______ _______ _____ _____    ______ ____
ROOT
ATOM      1  C   UNL     1      -9.746  15.096  65.930  0.00  0.00    +0.093 A 
ATOM      2  C   UNL     1      -9.148  14.333  66.925  0.00  0.00    +0.106 A 
ATOM      3  N   UNL     1      -7.763  14.607  67.159  0.00  0.00    -0.127 NA
ATOM      4  C   UNL     1      -9.885  13.499  67.757  0.00  0.00    +0.035 A 
ATOM      5  C   UNL     1     -11.233  13.281  67.495  0.00  0.00    +0.067 A 
ATOM      6  C   UNL     1     -11.737  13.768  66.295  0.00  0.00    +0.018 A 
ATOM      7  C   UNL     1     -11.003  14.663  65.526  0.00  0.00    +0.019 A 
ENDROOT
BRANCH   1   9
ATOM      8  C   UNL     1     -10.157  17.515  66.380  0.00  0.00    +0.425 C 
ATOM      9  N   UNL     1      -9.404  16.475  65.742  0.00  0.00    -0.141 NA
ATOM     10  O   UNL     1     -10.684  17.213  67.477  0.00  0.00    -0.224 OA
BRANCH   8  11
ATOM     11  O   UNL     1     -10.572  18.657  65.732  0.00  0.00    -0.433 OA
BRANCH  11  13
ATOM     12  C   UNL     1      -8.915  19.921  66.866  0.00  0.00    +0.051 C 
ATOM     13  C   UNL     1     -10.270  19.973  66.179  0.00  0.00    +0.210 C 
ENDBRANCH  11  13
ENDBRANCH   8  11
ENDBRANCH   1   9
BRANCH   5  14
ATOM     14  N   UNL     1     -12.088  12.710  68.464  0.00  0.00    -0.233 NA
BRANCH  14  15
ATOM     15  C   UNL     1     -11.749  12.549  69.854  0.00  0.00    +0.139 C 
BRANCH  15  16
ATOM     16  C   UNL     1     -12.291  13.659  70.660  0.00  0.00    -0.001 A 
ATOM     17  C   UNL     1     -13.218  13.342  71.642  0.00  0.00    -0.000 A 
ATOM     18  C   UNL     1     -13.391  14.217  72.707  0.00  0.00    +0.029 A 
ATOM     19  C   UNL     1     -12.492  15.250  72.945  0.00  0.00    +0.140 A 
ATOM     20  F   UNL     1     -12.077  15.522  74.218  0.00  0.00    -0.204 F 
ATOM     21  C   UNL     1     -11.765  15.668  71.838  0.00  0.00    +0.029 A 
ATOM     22  C   UNL     1     -11.807  14.940  70.656  0.00  0.00    -0.000 A 
ENDBRANCH  15  16
ENDBRANCH  14  15
ENDBRANCH   5  14
TORSDOF 6
ENDMDL
MODEL 5
REMARK VINA RESULT:      -6.2      3.547      4.917
REMARK  Name = 
REMARK  6 active torsions:
REMARK  status: ('A' for Active; 'I' for Inactive)
REMARK    1  A    between atoms: C_2  and  O_3
REMARK    2  A    between atoms: O_3  and  C_4
REMARK    3  A    between atoms: N_6  and  C_7
REMARK    4  A    between atoms: C_10  and  N_11
REMARK    5  A    between atoms: N_11  and  C_12
REMARK    6  A    between atoms: C_12  and  C_13
REMARK                            x       y       z     vdW  Elec       q    Type
REMARK                         _______ _______ _______ _____ _____    ______ ____
ROOT
ATOM      1  C   UNL     1     -11.990  14.012  66.065  0.00  0.00    +0.093 A 
ATOM      2  C   UNL     1     -11.809  12.679  65.720  0.00  0.00    +0.106 A 
ATOM      3  N   UNL     1     -11.950  12.382  64.328  0.00  0.00    -0.127 NA
ATOM      4  C   UNL     1     -11.342  11.740  66.631  0.00  0.00    +0.035 A 
ATOM      5  C   UNL     1     -11.207  12.087  67.970  0.00  0.00    +0.067 A 
ATOM      6  C   UNL     1     -11.724  13.314  68.368  0.00  0.00    +0.018 A 
ATOM      7  C   UNL     1     -12.108  14.261  67.427  0.00  0.00    +0.019 A 
ENDROOT
BRANCH   1   9
ATOM      8  C   UNL     1     -10.260  15.691  65.424  0.00  0.00    +0.425 C 
ATOM      9  N   UNL     1     -11.535  15.071  65.213  0.00  0.00    -0.141 NA
ATOM     10  O   UNL     1      -9.376  14.962  65.933  0.00  0.00    -0.224 OA
BRANCH   8  11
ATOM     11  O   UNL     1     -10.066  17.054  65.397  0.00  0.00    -0.433 OA
BRANCH  11  13
ATOM     12  C   UNL     1     -10.541  17.879  67.570  0.00  0.00    +0.051 C 
ATOM     13  C   UNL     1      -9.495  17.793  66.470  0.00  0.00    +0.210 C 
ENDBRANCH  11  13
ENDBRANCH   8  11
ENDBRANCH   1   9
BRANCH   5  14
ATOM     14  N   UNL     1     -10.455  11.291  68.864  0.00  0.00    -0.233 NA
BRANCH  14  15
ATOM     15  C   UNL     1     -10.761   9.923  69.188  0.00  0.00    +0.139 C 
BRANCH  15  16
ATOM     16  C   UNL     1     -11.366   9.821  70.529  0.00  0.00    -0.001 A 
ATOM     17  C   UNL     1     -12.400  10.695  70.831  0.00  0.00    -0.000 A 
ATOM     18  C   UNL     1     -13.296  10.350  71.835  0.00  0.00    +0.029 A 
ATOM     19  C   UNL     1     -13.338   9.061  72.354  0.00  0.00    +0.140 A 
ATOM     20  F   UNL     1     -14.537   8.452  72.590  0.00  0.00    -0.204 F 
ATOM     21  C   UNL     1     -12.165   8.330  72.215  0.00  0.00    +0.029 A 
ATOM     22  C   UNL     1     -11.130   8.809  71.422  0.00  0.00    -0.000 A 
ENDBRANCH  15  16
ENDBRANCH  14  15
ENDBRANCH   5  14
TORSDOF 6
ENDMDL
MODEL 6
REMARK VINA RESULT:      -6.2      2.833      3.499
REMARK  Name = 
REMARK  6 active torsions:
REMARK  status: ('A' for Active; 'I' for Inactive)
REMARK    1  A    between atoms: C_2  and  O_3
REMARK    2  A    between atoms: O_3  and  C_4
REMARK    3  A    between atoms: N_6  and  C_7
REMARK    4  A    between atoms: C_10  and  N_11
REMARK    5  A    between atoms: N_11  and  C_12
REMARK    6  A    between atoms: C_12  and  C_13
REMARK                            x       y       z     vdW  Elec       q    Type
REMARK                         _______ _______ _______ _____ _____    ______ ____
ROOT
ATOM      1  C   UNL     1     -10.638  12.397  66.409  0.00  0.00    +0.093 A 
ATOM      2  C   UNL     1     -11.756  13.152  66.079  0.00  0.00    +0.106 A 
ATOM      3  N   UNL     1     -12.665  12.534  65.163  0.00  0.00    -0.127 NA
ATOM      4  C   UNL     1     -12.062  14.340  66.733  0.00  0.00    +0.035 A 
ATOM      5  C   UNL     1     -11.150  14.888  67.627  0.00  0.00    +0.067 A 
ATOM      6  C   UNL     1      -9.887  14.312  67.686  0.00  0.00    +0.018 A 
ATOM      7  C   UNL     1      -9.638  13.084  67.086  0.00  0.00    +0.019 A 
ENDROOT
BRANCH   1   9
ATOM      8  C   UNL     1     -11.243  10.397  67.773  0.00  0.00    +0.425 C 
ATOM      9  N   UNL     1     -10.721  10.975  66.569  0.00  0.00    -0.141 NA
ATOM     10  O   UNL     1     -12.103  11.080  68.379  0.00  0.00    -0.224 OA
BRANCH   8  11
ATOM     11  O   UNL     1     -10.647   9.343  68.428  0.00  0.00    -0.433 OA
BRANCH  11  13
ATOM     12  C   UNL     1      -9.490   9.326  70.500  0.00  0.00    +0.051 C 
ATOM     13  C   UNL     1     -10.823   9.072  69.813  0.00  0.00    +0.210 C 
ENDBRANCH  11  13
ENDBRANCH   8  11
ENDBRANCH   1   9
BRANCH   5  14
ATOM     14  N   UNL     1     -11.530  15.900  68.537  0.00  0.00    -0.233 NA
BRANCH  14  15
ATOM     15  C   UNL     1     -10.924  16.103  69.827  0.00  0.00    +0.139 C 
BRANCH  15  16
ATOM     16  C   UNL     1     -11.627  15.330  70.867  0.00  0.00    -0.001 A 
ATOM     17  C   UNL     1     -12.262  16.043  71.873  0.00  0.00    -0.000 A 
ATOM     18  C   UNL     1     -13.300  15.438  72.570  0.00  0.00    +0.029 A 
ATOM     19  C   UNL     1     -13.880  14.258  72.119  0.00  0.00    +0.140 A 
ATOM     20  F   UNL     1     -15.237  14.102  72.147  0.00  0.00    -0.204 F 
ATOM     21  C   UNL     1     -13.076  13.481  71.295  0.00  0.00    +0.029 A 
ATOM     22  C   UNL     1     -11.876  13.984  70.810  0.00  0.00    -0.000 A 
ENDBRANCH  15  16
ENDBRANCH  14  15
ENDBRANCH   5  14
TORSDOF 6
ENDMDL
MODEL 7
REMARK VINA RESULT:      -6.2      3.530      5.588
REMARK  Name = 
REMARK  6 active torsions:
REMARK  status: ('A' for Active; 'I' for Inactive)
REMARK    1  A    between atoms: C_2  and  O_3
REMARK    2  A    between atoms: O_3  and  C_4
REMARK    3  A    between atoms: N_6  and  C_7
REMARK    4  A    between atoms: C_10  and  N_11
REMARK    5  A    between atoms: N_11  and  C_12
REMARK    6  A    between atoms: C_12  and  C_13
REMARK                            x       y       z     vdW  Elec       q    Type
REMARK                         _______ _______ _______ _____ _____    ______ ____
ROOT
ATOM      1  C   UNL     1     -11.228  15.314  68.299  0.00  0.00    +0.093 A 
ATOM      2  C   UNL     1      -9.878  14.999  68.378  0.00  0.00    +0.106 A 
ATOM      3  N   UNL     1      -9.037  16.031  68.903  0.00  0.00    -0.127 NA
ATOM      4  C   UNL     1      -9.406  13.714  68.140  0.00  0.00    +0.035 A 
ATOM      5  C   UNL     1     -10.270  12.744  67.645  0.00  0.00    +0.067 A 
ATOM      6  C   UNL     1     -11.531  13.160  67.237  0.00  0.00    +0.018 A 
ATOM      7  C   UNL     1     -12.002  14.426  67.561  0.00  0.00    +0.019 A 
ENDROOT
BRANCH   1   9
ATOM      8  C   UNL     1     -12.315  15.513  70.536  0.00  0.00    +0.425 C 
ATOM      9  N   UNL     1     -11.869  16.104  69.309  0.00  0.00    -0.141 NA
ATOM     10  O   UNL     1     -11.660  14.520  70.934  0.00  0.00    -0.224 OA
BRANCH   8  11
ATOM     11  O   UNL     1     -13.547  15.766  71.095  0.00  0.00    -0.433 OA
BRANCH  11  13
ATOM     12  C   UNL     1     -13.188  16.024  73.427  0.00  0.00    +0.051 C 
ATOM     13  C   UNL     1     -13.960  15.262  72.360  0.00  0.00    +0.210 C 
ENDBRANCH  11  13
ENDBRANCH   8  11
ENDBRANCH   1   9
BRANCH   5  14
ATOM     14  N   UNL     1      -9.934  11.371  67.683  0.00  0.00    -0.233 NA
BRANCH  14  15
ATOM     15  C   UNL     1     -10.843  10.322  68.061  0.00  0.00    +0.139 C 
BRANCH  15  16
ATOM     16  C   UNL     1     -11.032  10.290  69.523  0.00  0.00    -0.001 A 
ATOM     17  C   UNL     1     -12.204  10.834  70.027  0.00  0.00    -0.000 A 
ATOM     18  C   UNL     1     -12.651  10.420  71.276  0.00  0.00    +0.029 A 
ATOM     19  C   UNL     1     -12.106   9.306  71.905  0.00  0.00    +0.140 A 
ATOM     20  F   UNL     1     -12.917   8.406  72.535  0.00  0.00    -0.204 F 
ATOM     21  C   UNL     1     -10.820   8.970  71.502  0.00  0.00    +0.029 A 
ATOM     22  C   UNL     1     -10.246   9.592  70.400  0.00  0.00    -0.000 A 
ENDBRANCH  15  16
ENDBRANCH  14  15
ENDBRANCH   5  14
TORSDOF 6
ENDMDL
MODEL 8
REMARK VINA RESULT:      -6.1      3.778      5.144
REMARK  Name = 
REMARK  6 active torsions:
REMARK  status: ('A' for Active; 'I' for Inactive)
REMARK    1  A    between atoms: C_2  and  O_3
REMARK    2  A    between atoms: O_3  and  C_4
REMARK    3  A    between atoms: N_6  and  C_7
REMARK    4  A    between atoms: C_10  and  N_11
REMARK    5  A    between atoms: N_11  and  C_12
REMARK    6  A    between atoms: C_12  and  C_13
REMARK                            x       y       z     vdW  Elec       q    Type
REMARK                         _______ _______ _______ _____ _____    ______ ____
ROOT
ATOM      1  C   UNL     1     -10.960  15.590  67.358  0.00  0.00    +0.093 A 
ATOM      2  C   UNL     1     -11.290  14.671  66.370  0.00  0.00    +0.106 A 
ATOM      3  N   UNL     1     -11.036  15.097  65.027  0.00  0.00    -0.127 NA
ATOM      4  C   UNL     1     -11.663  13.367  66.672  0.00  0.00    +0.035 A 
ATOM      5  C   UNL     1     -11.880  13.001  67.995  0.00  0.00    +0.067 A 
ATOM      6  C   UNL     1     -11.891  14.016  68.945  0.00  0.00    +0.018 A 
ATOM      7  C   UNL     1     -11.436  15.290  68.629  0.00  0.00    +0.019 A 
ENDROOT
BRANCH   1   9
ATOM      8  C   UNL     1      -9.931  17.828  66.966  0.00  0.00    +0.425 C 
ATOM      9  N   UNL     1      -9.802  16.427  67.241  0.00  0.00    -0.141 NA
ATOM     10  O   UNL     1     -10.977  18.374  67.389  0.00  0.00    -0.224 OA
BRANCH   8  11
ATOM     11  O   UNL     1      -9.162  18.491  66.036  0.00  0.00    -0.433 OA
BRANCH  11  13
ATOM     12  C   UNL     1      -6.929  19.175  65.616  0.00  0.00    +0.051 C 
ATOM     13  C   UNL     1      -8.211  19.495  66.368  0.00  0.00    +0.210 C 
ENDBRANCH  11  13
ENDBRANCH   8  11
ENDBRANCH   1   9
BRANCH   5  14
ATOM     14  N   UNL     1     -11.950  11.644  68.381  0.00  0.00    -0.233 NA
BRANCH  14  15
ATOM     15  C   UNL     1     -10.902  10.941  69.074  0.00  0.00    +0.139 C 
BRANCH  15  16
ATOM     16  C   UNL     1     -11.378  10.437  70.376  0.00  0.00    -0.001 A 
ATOM     17  C   UNL     1     -12.495  11.048  70.928  0.00  0.00    -0.000 A 
ATOM     18  C   UNL     1     -13.252  10.345  71.857  0.00  0.00    +0.029 A 
ATOM     19  C   UNL     1     -13.074   8.979  72.047  0.00  0.00    +0.140 A 
ATOM     20  F   UNL     1     -14.156   8.156  72.181  0.00  0.00    -0.204 F 
ATOM     21  C   UNL     1     -11.827   8.488  71.681  0.00  0.00    +0.029 A 
ATOM     22  C   UNL     1     -10.935   9.292  70.983  0.00  0.00    -0.000 A 
ENDBRANCH  15  16
ENDBRANCH  14  15
ENDBRANCH   5  14
TORSDOF 6
ENDMDL
MODEL 9
REMARK VINA RESULT:      -6.1      4.037      5.206
REMARK  Name = 
REMARK  6 active torsions:
REMARK  status: ('A' for Active; 'I' for Inactive)
REMARK    1  A    between atoms: C_2  and  O_3
REMARK    2  A    between atoms: O_3  and  C_4
REMARK    3  A    between atoms: N_6  and  C_7
REMARK    4  A    between atoms: C_10  and  N_11
REMARK    5  A    between atoms: N_11  and  C_12
REMARK    6  A    between atoms: C_12  and  C_13
REMARK                            x       y       z     vdW  Elec       q    Type
REMARK                         _______ _______ _______ _____ _____    ______ ____
ROOT
ATOM      1  C   UNL     1      -8.226  18.076  66.830  0.00  0.00    +0.093 A 
ATOM      2  C   UNL     1      -9.474  18.677  66.728  0.00  0.00    +0.106 A 
ATOM      3  N   UNL     1      -9.569  19.737  65.771  0.00  0.00    -0.127 NA
ATOM      4  C   UNL     1     -10.593  18.165  67.374  0.00  0.00    +0.035 A 
ATOM      5  C   UNL     1     -10.447  17.123  68.282  0.00  0.00    +0.067 A 
ATOM      6  C   UNL     1      -9.153  16.764  68.640  0.00  0.00    +0.018 A 
ATOM      7  C   UNL     1      -8.061  17.234  67.922  0.00  0.00    +0.019 A 
ENDROOT
BRANCH   1   9
ATOM      8  C   UNL     1      -6.381  18.807  65.318  0.00  0.00    +0.425 C 
ATOM      9  N   UNL     1      -7.404  17.868  65.674  0.00  0.00    -0.141 NA
ATOM     10  O   UNL     1      -5.861  19.435  66.271  0.00  0.00    -0.224 OA
BRANCH   8  11
ATOM     11  O   UNL     1      -6.182  19.260  64.033  0.00  0.00    -0.433 OA
BRANCH  11  13
ATOM     12  C   UNL     1      -6.101  21.098  62.535  0.00  0.00    +0.051 C 
ATOM     13  C   UNL     1      -5.420  20.418  63.713  0.00  0.00    +0.210 C 
ENDBRANCH  11  13
ENDBRANCH   8  11
ENDBRANCH   1   9
BRANCH   5  14
ATOM     14  N   UNL     1     -11.559  16.367  68.720  0.00  0.00    -0.233 NA
BRANCH  14  15
ATOM     15  C   UNL     1     -11.487  15.002  69.168  0.00  0.00    +0.139 C 
BRANCH  15  16
ATOM     16  C   UNL     1     -11.994  14.873  70.547  0.00  0.00    -0.001 A 
ATOM     17  C   UNL     1     -11.497  15.756  71.495  0.00  0.00    -0.000 A 
ATOM     18  C   UNL     1     -12.247  16.004  72.638  0.00  0.00    +0.029 A 
ATOM     19  C   UNL     1     -13.575  15.603  72.730  0.00  0.00    +0.140 A 
ATOM     20  F   UNL     1     -14.512  16.440  73.264  0.00  0.00    -0.204 F 
ATOM     21  C   UNL     1     -13.931  14.544  71.904  0.00  0.00    +0.029 A 
ATOM     22  C   UNL     1     -13.056  14.095  70.923  0.00  0.00    -0.000 A 
ENDBRANCH  15  16
ENDBRANCH  14  15
ENDBRANCH   5  14
TORSDOF 6
ENDMDL
