MODEL 1
REMARK VINA RESULT:      -6.5      0.000      0.000
REMARK  Name = 
REMARK  13 active torsions:
REMARK  status: ('A' for Active; 'I' for Inactive)
REMARK    1  A    between atoms: C_3  and  C_4
REMARK    2  A    between atoms: C_4  and  C_5
REMARK    3  A    between atoms: C_5  and  C_7
REMARK    4  A    between atoms: C_7  and  C_9
REMARK    5  A    between atoms: C_10  and  C_11
REMARK    6  A    between atoms: C_15  and  C_16
REMARK    7  A    between atoms: C_16  and  C_17
REMARK    8  A    between atoms: C_17  and  C_18
REMARK    9  A    between atoms: C_18  and  C_19
REMARK   10  A    between atoms: C_19  and  O_21
REMARK   11  A    between atoms: O_21  and  C_22
REMARK   12  A    between atoms: C_22  and  C_23
REMARK   13  A    between atoms: C_23  and  C_25
REMARK                            x       y       z     vdW  Elec       q    Type
REMARK                         _______ _______ _______ _____ _____    ______ ____
ROOT
ATOM      1  C   UNL     1     -11.589  12.360  66.325  0.00  0.00    +0.052 C 
ATOM      2  C   UNL     1     -12.001  13.187  64.898  0.00  0.00    +0.156 C 
ATOM      3  O   UNL     1     -13.046  14.032  65.606  0.00  0.00    -0.223 OA
ATOM      4  C   UNL     1     -10.825  14.328  64.930  0.00  0.00    +0.034 C 
ATOM      5  C   UNL     1     -11.161  14.678  66.459  0.00  0.00    +0.007 C 
ATOM      6  C   UNL     1      -9.786  15.429  66.919  0.00  0.00    +0.022 C 
ATOM      7  C   UNL     1     -10.172  14.997  68.334  0.00  0.00    -0.048 C 
ATOM      8  C   UNL     1     -11.048  15.846  68.837  0.00  0.00    -0.035 C 
ATOM      9  C   UNL     1     -10.609  13.548  68.308  0.00  0.00    +0.022 C 
ATOM     10  C   UNL     1     -10.276  13.281  66.749  0.00  0.00    +0.011 C 
ENDROOT
BRANCH   1  12
ATOM     11  C   UNL     1     -10.488  10.119  65.877  0.00  0.00    +0.002 C 
ATOM     12  C   UNL     1     -10.729  11.325  65.484  0.00  0.00    -0.026 C 
BRANCH  11  13
ATOM     13  C   UNL     1      -9.242   9.523  65.027  0.00  0.00    +0.175 C 
ATOM     14  O   UNL     1      -8.432  10.782  65.248  0.00  0.00    -0.218 OA
BRANCH  13  15
ATOM     15  C   UNL     1      -8.536   8.748  66.379  0.00  0.00    +0.048 C 
ATOM     16  C   UNL     1      -7.292   8.151  65.533  0.00  0.00    +0.004 C 
BRANCH  15  17
ATOM     17  C   UNL     1      -9.402   7.401  66.156  0.00  0.00    +0.079 C 
BRANCH  17  20
ATOM     18  C   UNL     1     -10.916   5.757  69.515  0.00  0.00    +0.090 C 
ATOM     19  C   UNL     1     -10.241   6.593  68.569  0.00  0.00    -0.090 C 
ATOM     20  C   UNL     1      -9.755   6.903  67.497  0.00  0.00    -0.091 C 
ENDBRANCH  17  20
ENDBRANCH  15  17
ENDBRANCH  13  15
ENDBRANCH  11  13
ENDBRANCH   1  12
BRANCH   8  21
ATOM     21  C   UNL     1     -12.132  15.743  69.766  0.00  0.00    +0.026 C 
BRANCH  21  22
ATOM     22  C   UNL     1     -11.868  16.074  71.188  0.00  0.00    +0.016 C 
BRANCH  22  23
ATOM     23  C   UNL     1     -11.864  14.732  71.861  0.00  0.00    +0.110 C 
BRANCH  23  24
ATOM     24  C   UNL     1     -13.155  14.124  72.064  0.00  0.00    +0.317 C 
ATOM     25  O   UNL     1     -14.129  14.492  72.742  0.00  0.00    -0.250 OA
BRANCH  24  26
ATOM     26  O   UNL     1     -13.111  12.730  71.883  0.00  0.00    -0.440 OA
BRANCH  26  27
ATOM     27  C   UNL     1     -12.596  12.119  70.720  0.00  0.00    +0.277 C 
BRANCH  27  28
ATOM     28  C   UNL     1     -12.516  10.666  71.063  0.00  0.00    +0.217 C 
ATOM     29  O   UNL     1     -13.248  10.309  72.037  0.00  0.00    -0.287 OA
BRANCH  28  30
ATOM     30  C   UNL     1     -11.347   9.886  70.708  0.00  0.00    +0.038 A 
ATOM     31  C   UNL     1     -10.836   9.043  71.677  0.00  0.00    +0.003 A 
ATOM     32  C   UNL     1      -9.532   8.591  71.537  0.00  0.00    +0.000 A 
ATOM     33  C   UNL     1      -8.680   9.243  70.652  0.00  0.00    +0.000 A 
ATOM     34  C   UNL     1      -9.242  10.006  69.655  0.00  0.00    +0.000 A 
ATOM     35  C   UNL     1     -10.631  10.002  69.557  0.00  0.00    +0.003 A 
ENDBRANCH  28  30
ENDBRANCH  27  28
ENDBRANCH  26  27
ENDBRANCH  24  26
ENDBRANCH  23  24
ENDBRANCH  22  23
ENDBRANCH  21  22
ENDBRANCH   8  21
TORSDOF 13
ENDMDL
MODEL 2
REMARK VINA RESULT:      -6.5      2.559      6.411
REMARK  Name = 
REMARK  13 active torsions:
REMARK  status: ('A' for Active; 'I' for Inactive)
REMARK    1  A    between atoms: C_3  and  C_4
REMARK    2  A    between atoms: C_4  and  C_5
REMARK    3  A    between atoms: C_5  and  C_7
REMARK    4  A    between atoms: C_7  and  C_9
REMARK    5  A    between atoms: C_10  and  C_11
REMARK    6  A    between atoms: C_15  and  C_16
REMARK    7  A    between atoms: C_16  and  C_17
REMARK    8  A    between atoms: C_17  and  C_18
REMARK    9  A    between atoms: C_18  and  C_19
REMARK   10  A    between atoms: C_19  and  O_21
REMARK   11  A    between atoms: O_21  and  C_22
REMARK   12  A    between atoms: C_22  and  C_23
REMARK   13  A    between atoms: C_23  and  C_25
REMARK                            x       y       z     vdW  Elec       q    Type
REMARK                         _______ _______ _______ _____ _____    ______ ____
ROOT
ATOM      1  C   UNL     1     -10.647  13.507  65.191  0.00  0.00    +0.052 C 
ATOM      2  C   UNL     1     -12.260  13.994  65.421  0.00  0.00    +0.156 C 
ATOM      3  O   UNL     1     -12.798  12.612  65.089  0.00  0.00    -0.223 OA
ATOM      4  C   UNL     1     -12.340  13.810  67.048  0.00  0.00    +0.034 C 
ATOM      5  C   UNL     1     -11.711  12.338  66.944  0.00  0.00    +0.007 C 
ATOM      6  C   UNL     1     -11.187  12.112  68.474  0.00  0.00    +0.022 C 
ATOM      7  C   UNL     1     -10.199  11.123  67.856  0.00  0.00    -0.048 C 
ATOM      8  C   UNL     1     -10.791   9.958  67.668  0.00  0.00    -0.035 C 
ATOM      9  C   UNL     1      -9.578  11.745  66.624  0.00  0.00    +0.022 C 
ATOM     10  C   UNL     1     -10.277  13.194  66.777  0.00  0.00    +0.011 C 
ENDROOT
BRANCH   1  12
ATOM     11  C   UNL     1      -9.323  15.455  66.133  0.00  0.00    +0.002 C 
ATOM     12  C   UNL     1     -10.174  15.020  65.264  0.00  0.00    -0.026 C 
BRANCH  11  13
ATOM     13  C   UNL     1      -9.424  17.072  66.212  0.00  0.00    +0.175 C 
ATOM     14  O   UNL     1     -10.507  17.098  65.154  0.00  0.00    -0.218 OA
BRANCH  13  15
ATOM     15  C   UNL     1     -10.570  17.057  67.483  0.00  0.00    +0.048 C 
ATOM     16  C   UNL     1     -10.314  18.603  67.887  0.00  0.00    +0.004 C 
BRANCH  15  17
ATOM     17  C   UNL     1      -9.480  16.540  68.561  0.00  0.00    +0.079 C 
BRANCH  17  20
ATOM     18  C   UNL     1     -12.008  14.530  70.978  0.00  0.00    +0.090 C 
ATOM     19  C   UNL     1     -11.025  15.423  70.443  0.00  0.00    -0.090 C 
ATOM     20  C   UNL     1     -10.235  15.856  69.624  0.00  0.00    -0.091 C 
ENDBRANCH  17  20
ENDBRANCH  15  17
ENDBRANCH  13  15
ENDBRANCH  11  13
ENDBRANCH   1  12
BRANCH   8  21
ATOM     21  C   UNL     1     -10.649   8.898  66.718  0.00  0.00    +0.026 C 
BRANCH  21  22
ATOM     22  C   UNL     1      -9.505   7.967  66.875  0.00  0.00    +0.016 C 
BRANCH  22  23
ATOM     23  C   UNL     1      -9.745   7.345  68.220  0.00  0.00    +0.110 C 
BRANCH  23  24
ATOM     24  C   UNL     1     -10.414   6.068  68.214  0.00  0.00    +0.317 C 
ATOM     25  O   UNL     1     -10.955   5.439  67.290  0.00  0.00    -0.250 OA
BRANCH  24  26
ATOM     26  O   UNL     1     -10.947   5.750  69.477  0.00  0.00    -0.440 OA
BRANCH  26  27
ATOM     27  C   UNL     1     -10.208   5.855  70.674  0.00  0.00    +0.277 C 
BRANCH  27  28
ATOM     28  C   UNL     1     -11.187   6.382  71.674  0.00  0.00    +0.217 C 
ATOM     29  O   UNL     1     -11.600   5.526  72.514  0.00  0.00    -0.287 OA
BRANCH  28  30
ATOM     30  C   UNL     1     -11.985   7.556  71.379  0.00  0.00    +0.038 A 
ATOM     31  C   UNL     1     -11.306   8.737  71.153  0.00  0.00    +0.003 A 
ATOM     32  C   UNL     1     -12.006   9.931  71.260  0.00  0.00    +0.000 A 
ATOM     33  C   UNL     1     -13.236   9.940  71.909  0.00  0.00    +0.000 A 
ATOM     34  C   UNL     1     -13.909   8.747  72.036  0.00  0.00    +0.000 A 
ATOM     35  C   UNL     1     -13.343   7.629  71.430  0.00  0.00    +0.003 A 
ENDBRANCH  28  30
ENDBRANCH  27  28
ENDBRANCH  26  27
ENDBRANCH  24  26
ENDBRANCH  23  24
ENDBRANCH  22  23
ENDBRANCH  21  22
ENDBRANCH   8  21
TORSDOF 13
ENDMDL
MODEL 3
REMARK VINA RESULT:      -6.4      3.077      7.519
REMARK  Name = 
REMARK  13 active torsions:
REMARK  status: ('A' for Active; 'I' for Inactive)
REMARK    1  A    between atoms: C_3  and  C_4
REMARK    2  A    between atoms: C_4  and  C_5
REMARK    3  A    between atoms: C_5  and  C_7
REMARK    4  A    between atoms: C_7  and  C_9
REMARK    5  A    between atoms: C_10  and  C_11
REMARK    6  A    between atoms: C_15  and  C_16
REMARK    7  A    between atoms: C_16  and  C_17
REMARK    8  A    between atoms: C_17  and  C_18
REMARK    9  A    between atoms: C_18  and  C_19
REMARK   10  A    between atoms: C_19  and  O_21
REMARK   11  A    between atoms: O_21  and  C_22
REMARK   12  A    between atoms: C_22  and  C_23
REMARK   13  A    between atoms: C_23  and  C_25
REMARK                            x       y       z     vdW  Elec       q    Type
REMARK                         _______ _______ _______ _____ _____    ______ ____
ROOT
ATOM      1  C   UNL     1     -10.424  14.435  65.013  0.00  0.00    +0.052 C 
ATOM      2  C   UNL     1     -12.045  14.413  64.500  0.00  0.00    +0.156 C 
ATOM      3  O   UNL     1     -11.890  13.054  63.839  0.00  0.00    -0.223 OA
ATOM      4  C   UNL     1     -12.728  13.843  65.877  0.00  0.00    +0.034 C 
ATOM      5  C   UNL     1     -11.655  12.654  65.955  0.00  0.00    +0.007 C 
ATOM      6  C   UNL     1     -11.775  12.226  67.527  0.00  0.00    +0.022 C 
ATOM      7  C   UNL     1     -10.348  11.702  67.363  0.00  0.00    -0.048 C 
ATOM      8  C   UNL     1     -10.372  10.500  66.820  0.00  0.00    -0.035 C 
ATOM      9  C   UNL     1      -9.522  12.734  66.625  0.00  0.00    +0.022 C 
ATOM     10  C   UNL     1     -10.667  13.872  66.555  0.00  0.00    +0.011 C 
ENDROOT
BRANCH   1  12
ATOM     11  C   UNL     1      -9.814  16.530  66.306  0.00  0.00    +0.002 C 
ATOM     12  C   UNL     1     -10.570  15.959  65.429  0.00  0.00    -0.026 C 
BRANCH  11  13
ATOM     13  C   UNL     1     -10.519  17.905  66.801  0.00  0.00    +0.175 C 
ATOM     14  O   UNL     1     -11.035  17.238  68.058  0.00  0.00    -0.218 OA
BRANCH  13  15
ATOM     15  C   UNL     1      -9.117  18.477  67.597  0.00  0.00    +0.048 C 
ATOM     16  C   UNL     1      -9.889  19.697  68.328  0.00  0.00    +0.004 C 
BRANCH  15  17
ATOM     17  C   UNL     1      -8.701  19.419  66.350  0.00  0.00    +0.079 C 
BRANCH  17  20
ATOM     18  C   UNL     1      -5.305  21.493  67.018  0.00  0.00    +0.090 C 
ATOM     19  C   UNL     1      -6.519  20.746  67.159  0.00  0.00    -0.090 C 
ATOM     20  C   UNL     1      -7.572  20.247  66.808  0.00  0.00    -0.091 C 
ENDBRANCH  17  20
ENDBRANCH  15  17
ENDBRANCH  13  15
ENDBRANCH  11  13
ENDBRANCH   1  12
BRANCH   8  21
ATOM     21  C   UNL     1      -9.496   9.764  65.961  0.00  0.00    +0.026 C 
BRANCH  21  22
ATOM     22  C   UNL     1      -9.419   8.292  66.135  0.00  0.00    +0.016 C 
BRANCH  22  23
ATOM     23  C   UNL     1     -10.590   7.986  67.023  0.00  0.00    +0.110 C 
BRANCH  23  24
ATOM     24  C   UNL     1     -10.717   6.615  67.450  0.00  0.00    +0.317 C 
ATOM     25  O   UNL     1     -10.727   5.559  66.796  0.00  0.00    -0.250 OA
BRANCH  24  26
ATOM     26  O   UNL     1     -11.408   6.509  68.671  0.00  0.00    -0.440 OA
BRANCH  26  27
ATOM     27  C   UNL     1     -10.900   5.809  69.786  0.00  0.00    +0.277 C 
BRANCH  27  28
ATOM     28  C   UNL     1     -10.087   6.821  70.527  0.00  0.00    +0.217 C 
ATOM     29  O   UNL     1      -9.016   6.371  71.038  0.00  0.00    -0.287 OA
BRANCH  28  30
ATOM     30  C   UNL     1     -10.708   8.013  71.071  0.00  0.00    +0.038 A 
ATOM     31  C   UNL     1     -11.776   7.829  71.928  0.00  0.00    +0.003 A 
ATOM     32  C   UNL     1     -12.632   8.898  72.154  0.00  0.00    +0.000 A 
ATOM     33  C   UNL     1     -12.607   9.982  71.282  0.00  0.00    +0.000 A 
ATOM     34  C   UNL     1     -11.484  10.165  70.509  0.00  0.00    +0.000 A 
ATOM     35  C   UNL     1     -10.418   9.295  70.717  0.00  0.00    +0.003 A 
ENDBRANCH  28  30
ENDBRANCH  27  28
ENDBRANCH  26  27
ENDBRANCH  24  26
ENDBRANCH  23  24
ENDBRANCH  22  23
ENDBRANCH  21  22
ENDBRANCH   8  21
TORSDOF 13
ENDMDL
MODEL 4
REMARK VINA RESULT:      -6.3      4.568      8.768
REMARK  Name = 
REMARK  13 active torsions:
REMARK  status: ('A' for Active; 'I' for Inactive)
REMARK    1  A    between atoms: C_3  and  C_4
REMARK    2  A    between atoms: C_4  and  C_5
REMARK    3  A    between atoms: C_5  and  C_7
REMARK    4  A    between atoms: C_7  and  C_9
REMARK    5  A    between atoms: C_10  and  C_11
REMARK    6  A    between atoms: C_15  and  C_16
REMARK    7  A    between atoms: C_16  and  C_17
REMARK    8  A    between atoms: C_17  and  C_18
REMARK    9  A    between atoms: C_18  and  C_19
REMARK   10  A    between atoms: C_19  and  O_21
REMARK   11  A    between atoms: O_21  and  C_22
REMARK   12  A    between atoms: C_22  and  C_23
REMARK   13  A    between atoms: C_23  and  C_25
REMARK                            x       y       z     vdW  Elec       q    Type
REMARK                         _______ _______ _______ _____ _____    ______ ____
ROOT
ATOM      1  C   UNL     1     -10.475  16.157  67.680  0.00  0.00    +0.052 C 
ATOM      2  C   UNL     1     -10.897  15.238  66.313  0.00  0.00    +0.156 C 
ATOM      3  O   UNL     1      -9.964  16.026  65.409  0.00  0.00    -0.223 OA
ATOM      4  C   UNL     1      -9.871  13.979  66.541  0.00  0.00    +0.034 C 
ATOM      5  C   UNL     1      -8.641  14.982  66.771  0.00  0.00    +0.007 C 
ATOM      6  C   UNL     1      -7.582  14.006  67.542  0.00  0.00    +0.022 C 
ATOM      7  C   UNL     1      -7.001  15.299  68.116  0.00  0.00    -0.048 C 
ATOM      8  C   UNL     1      -6.178  15.847  67.242  0.00  0.00    -0.035 C 
ATOM      9  C   UNL     1      -8.135  16.185  68.588  0.00  0.00    +0.022 C 
ATOM     10  C   UNL     1      -9.326  15.132  68.296  0.00  0.00    +0.011 C 
ENDROOT
BRANCH   1  12
ATOM     11  C   UNL     1     -11.532  15.055  69.705  0.00  0.00    +0.002 C 
ATOM     12  C   UNL     1     -11.663  15.495  68.498  0.00  0.00    -0.026 C 
BRANCH  11  13
ATOM     13  C   UNL     1     -12.770  14.062  70.044  0.00  0.00    +0.175 C 
ATOM     14  O   UNL     1     -11.945  12.843  69.687  0.00  0.00    -0.218 OA
BRANCH  13  15
ATOM     15  C   UNL     1     -12.367  13.933  71.703  0.00  0.00    +0.048 C 
ATOM     16  C   UNL     1     -13.479  12.797  72.003  0.00  0.00    +0.004 C 
BRANCH  15  17
ATOM     17  C   UNL     1     -13.388  15.116  72.120  0.00  0.00    +0.079 C 
BRANCH  17  20
ATOM     18  C   UNL     1     -12.214  17.050  75.461  0.00  0.00    +0.090 C 
ATOM     19  C   UNL     1     -12.431  16.081  74.429  0.00  0.00    -0.090 C 
ATOM     20  C   UNL     1     -12.956  15.594  73.445  0.00  0.00    -0.091 C 
ENDBRANCH  17  20
ENDBRANCH  15  17
ENDBRANCH  13  15
ENDBRANCH  11  13
ENDBRANCH   1  12
BRANCH   8  21
ATOM     21  C   UNL     1      -5.791  17.188  66.926  0.00  0.00    +0.026 C 
BRANCH  21  22
ATOM     22  C   UNL     1      -4.371  17.570  67.126  0.00  0.00    +0.016 C 
BRANCH  22  23
ATOM     23  C   UNL     1      -4.177  17.422  68.607  0.00  0.00    +0.110 C 
BRANCH  23  24
ATOM     24  C   UNL     1      -4.849  18.395  69.432  0.00  0.00    +0.317 C 
ATOM     25  O   UNL     1      -5.746  18.258  70.280  0.00  0.00    -0.250 OA
BRANCH  24  26
ATOM     26  O   UNL     1      -4.840  19.673  68.846  0.00  0.00    -0.440 OA
BRANCH  26  27
ATOM     27  C   UNL     1      -5.855  20.629  69.064  0.00  0.00    +0.277 C 
BRANCH  27  28
ATOM     28  C   UNL     1      -6.607  20.680  67.773  0.00  0.00    +0.217 C 
ATOM     29  O   UNL     1      -6.369  21.703  67.060  0.00  0.00    -0.287 OA
BRANCH  28  30
ATOM     30  C   UNL     1      -7.853  19.958  67.615  0.00  0.00    +0.038 A 
ATOM     31  C   UNL     1      -8.329  19.798  66.328  0.00  0.00    +0.003 A 
ATOM     32  C   UNL     1      -9.668  19.479  66.154  0.00  0.00    +0.000 A 
ATOM     33  C   UNL     1     -10.552  19.664  67.212  0.00  0.00    +0.000 A 
ATOM     34  C   UNL     1     -10.033  19.736  68.484  0.00  0.00    +0.000 A 
ATOM     35  C   UNL     1      -8.663  19.535  68.625  0.00  0.00    +0.003 A 
ENDBRANCH  28  30
ENDBRANCH  27  28
ENDBRANCH  26  27
ENDBRANCH  24  26
ENDBRANCH  23  24
ENDBRANCH  22  23
ENDBRANCH  21  22
ENDBRANCH   8  21
TORSDOF 13
ENDMDL
MODEL 5
REMARK VINA RESULT:      -6.3      4.076      7.591
REMARK  Name = 
REMARK  13 active torsions:
REMARK  status: ('A' for Active; 'I' for Inactive)
REMARK    1  A    between atoms: C_3  and  C_4
REMARK    2  A    between atoms: C_4  and  C_5
REMARK    3  A    between atoms: C_5  and  C_7
REMARK    4  A    between atoms: C_7  and  C_9
REMARK    5  A    between atoms: C_10  and  C_11
REMARK    6  A    between atoms: C_15  and  C_16
REMARK    7  A    between atoms: C_16  and  C_17
REMARK    8  A    between atoms: C_17  and  C_18
REMARK    9  A    between atoms: C_18  and  C_19
REMARK   10  A    between atoms: C_19  and  O_21
REMARK   11  A    between atoms: O_21  and  C_22
REMARK   12  A    between atoms: C_22  and  C_23
REMARK   13  A    between atoms: C_23  and  C_25
REMARK                            x       y       z     vdW  Elec       q    Type
REMARK                         _______ _______ _______ _____ _____    ______ ____
ROOT
ATOM      1  C   UNL     1      -8.242  19.418  66.306  0.00  0.00    +0.052 C 
ATOM      2  C   UNL     1      -9.317  20.373  67.216  0.00  0.00    +0.156 C 
ATOM      3  O   UNL     1     -10.505  19.980  66.355  0.00  0.00    -0.223 OA
ATOM      4  C   UNL     1      -9.632  19.306  68.419  0.00  0.00    +0.034 C 
ATOM      5  C   UNL     1      -9.932  18.144  67.354  0.00  0.00    +0.007 C 
ATOM      6  C   UNL     1      -9.765  16.813  68.286  0.00  0.00    +0.022 C 
ATOM      7  C   UNL     1      -9.453  16.089  66.976  0.00  0.00    -0.048 C 
ATOM      8  C   UNL     1     -10.577  15.771  66.362  0.00  0.00    -0.035 C 
ATOM      9  C   UNL     1      -8.482  16.922  66.168  0.00  0.00    +0.022 C 
ATOM     10  C   UNL     1      -8.256  18.074  67.279  0.00  0.00    +0.011 C 
ENDROOT
BRANCH   1  12
ATOM     11  C   UNL     1      -5.911  19.452  67.304  0.00  0.00    +0.002 C 
ATOM     12  C   UNL     1      -7.010  20.081  67.054  0.00  0.00    -0.026 C 
BRANCH  11  13
ATOM     13  C   UNL     1      -5.086  20.258  68.445  0.00  0.00    +0.175 C 
ATOM     14  O   UNL     1      -6.053  21.421  68.383  0.00  0.00    -0.218 OA
BRANCH  13  15
ATOM     15  C   UNL     1      -5.936  19.531  69.740  0.00  0.00    +0.048 C 
ATOM     16  C   UNL     1      -5.172  20.392  70.877  0.00  0.00    +0.004 C 
BRANCH  15  17
ATOM     17  C   UNL     1      -4.868  18.323  69.864  0.00  0.00    +0.079 C 
BRANCH  17  20
ATOM     18  C   UNL     1      -6.749  14.800  69.293  0.00  0.00    +0.090 C 
ATOM     19  C   UNL     1      -6.382  16.118  69.716  0.00  0.00    -0.090 C 
ATOM     20  C   UNL     1      -5.648  17.074  69.886  0.00  0.00    -0.091 C 
ENDBRANCH  17  20
ENDBRANCH  15  17
ENDBRANCH  13  15
ENDBRANCH  11  13
ENDBRANCH   1  12
BRANCH   8  21
ATOM     21  C   UNL     1     -10.970  15.621  64.995  0.00  0.00    +0.026 C 
BRANCH  21  22
ATOM     22  C   UNL     1     -12.071  14.676  64.683  0.00  0.00    +0.016 C 
BRANCH  22  23
ATOM     23  C   UNL     1     -12.367  14.039  66.010  0.00  0.00    +0.110 C 
BRANCH  23  24
ATOM     24  C   UNL     1     -11.977  12.657  66.147  0.00  0.00    +0.317 C 
ATOM     25  O   UNL     1     -11.972  11.729  65.321  0.00  0.00    -0.250 OA
BRANCH  24  26
ATOM     26  O   UNL     1     -12.103  12.208  67.474  0.00  0.00    -0.440 OA
BRANCH  26  27
ATOM     27  C   UNL     1     -11.089  12.370  68.443  0.00  0.00    +0.277 C 
BRANCH  27  28
ATOM     28  C   UNL     1     -11.770  12.103  69.747  0.00  0.00    +0.217 C 
ATOM     29  O   UNL     1     -12.363  10.983  69.816  0.00  0.00    -0.287 OA
BRANCH  28  30
ATOM     30  C   UNL     1     -12.180  13.197  70.604  0.00  0.00    +0.038 A 
ATOM     31  C   UNL     1     -13.104  12.911  71.591  0.00  0.00    +0.003 A 
ATOM     32  C   UNL     1     -13.809  13.962  72.160  0.00  0.00    +0.000 A 
ATOM     33  C   UNL     1     -13.829  15.193  71.513  0.00  0.00    +0.000 A 
ATOM     34  C   UNL     1     -12.838  15.460  70.598  0.00  0.00    +0.000 A 
ATOM     35  C   UNL     1     -11.837  14.505  70.447  0.00  0.00    +0.003 A 
ENDBRANCH  28  30
ENDBRANCH  27  28
ENDBRANCH  26  27
ENDBRANCH  24  26
ENDBRANCH  23  24
ENDBRANCH  22  23
ENDBRANCH  21  22
ENDBRANCH   8  21
TORSDOF 13
ENDMDL
MODEL 6
REMARK VINA RESULT:      -6.3      4.041      7.396
REMARK  Name = 
REMARK  13 active torsions:
REMARK  status: ('A' for Active; 'I' for Inactive)
REMARK    1  A    between atoms: C_3  and  C_4
REMARK    2  A    between atoms: C_4  and  C_5
REMARK    3  A    between atoms: C_5  and  C_7
REMARK    4  A    between atoms: C_7  and  C_9
REMARK    5  A    between atoms: C_10  and  C_11
REMARK    6  A    between atoms: C_15  and  C_16
REMARK    7  A    between atoms: C_16  and  C_17
REMARK    8  A    between atoms: C_17  and  C_18
REMARK    9  A    between atoms: C_18  and  C_19
REMARK   10  A    between atoms: C_19  and  O_21
REMARK   11  A    between atoms: O_21  and  C_22
REMARK   12  A    between atoms: C_22  and  C_23
REMARK   13  A    between atoms: C_23  and  C_25
REMARK                            x       y       z     vdW  Elec       q    Type
REMARK                         _______ _______ _______ _____ _____    ______ ____
ROOT
ATOM      1  C   UNL     1      -8.729  19.156  66.190  0.00  0.00    +0.052 C 
ATOM      2  C   UNL     1      -9.701  20.161  67.159  0.00  0.00    +0.156 C 
ATOM      3  O   UNL     1     -10.986  19.569  66.605  0.00  0.00    -0.223 OA
ATOM      4  C   UNL     1      -9.690  19.263  68.530  0.00  0.00    +0.034 C 
ATOM      5  C   UNL     1     -10.072  17.941  67.705  0.00  0.00    +0.007 C 
ATOM      6  C   UNL     1      -9.615  16.775  68.753  0.00  0.00    +0.022 C 
ATOM      7  C   UNL     1      -9.483  15.889  67.513  0.00  0.00    -0.048 C 
ATOM      8  C   UNL     1     -10.667  15.411  67.177  0.00  0.00    -0.035 C 
ATOM      9  C   UNL     1      -8.758  16.657  66.429  0.00  0.00    +0.022 C 
ATOM     10  C   UNL     1      -8.440  17.971  67.314  0.00  0.00    +0.011 C 
ENDROOT
BRANCH   1  12
ATOM     11  C   UNL     1      -6.295  19.470  66.830  0.00  0.00    +0.002 C 
ATOM     12  C   UNL     1      -7.447  20.001  66.590  0.00  0.00    -0.026 C 
BRANCH  11  13
ATOM     13  C   UNL     1      -5.374  20.540  67.630  0.00  0.00    +0.175 C 
ATOM     14  O   UNL     1      -6.479  21.574  67.605  0.00  0.00    -0.218 OA
BRANCH  13  15
ATOM     15  C   UNL     1      -5.848  19.972  69.174  0.00  0.00    +0.048 C 
ATOM     16  C   UNL     1      -4.921  21.030  69.975  0.00  0.00    +0.004 C 
BRANCH  15  17
ATOM     17  C   UNL     1      -4.683  18.850  69.202  0.00  0.00    +0.079 C 
BRANCH  17  20
ATOM     18  C   UNL     1      -6.403  15.226  69.634  0.00  0.00    +0.090 C 
ATOM     19  C   UNL     1      -6.010  16.596  69.780  0.00  0.00    -0.090 C 
ATOM     20  C   UNL     1      -5.327  17.588  69.604  0.00  0.00    -0.091 C 
ENDBRANCH  17  20
ENDBRANCH  15  17
ENDBRANCH  13  15
ENDBRANCH  11  13
ENDBRANCH   1  12
BRANCH   8  21
ATOM     21  C   UNL     1     -11.289  15.038  65.944  0.00  0.00    +0.026 C 
BRANCH  21  22
ATOM     22  C   UNL     1     -12.374  14.026  65.987  0.00  0.00    +0.016 C 
BRANCH  22  23
ATOM     23  C   UNL     1     -11.858  12.926  65.106  0.00  0.00    +0.110 C 
BRANCH  23  24
ATOM     24  C   UNL     1     -11.219  11.824  65.781  0.00  0.00    +0.317 C 
ATOM     25  O   UNL     1     -10.561  10.870  65.335  0.00  0.00    -0.250 OA
BRANCH  24  26
ATOM     26  O   UNL     1     -11.839  11.533  67.010  0.00  0.00    -0.440 OA
BRANCH  26  27
ATOM     27  C   UNL     1     -11.153  10.969  68.106  0.00  0.00    +0.277 C 
BRANCH  27  28
ATOM     28  C   UNL     1     -11.857  11.511  69.309  0.00  0.00    +0.217 C 
ATOM     29  O   UNL     1     -11.964  12.775  69.337  0.00  0.00    -0.287 OA
BRANCH  28  30
ATOM     30  C   UNL     1     -11.906  10.750  70.542  0.00  0.00    +0.038 A 
ATOM     31  C   UNL     1     -10.942   9.776  70.718  0.00  0.00    +0.003 A 
ATOM     32  C   UNL     1     -11.172   8.782  71.659  0.00  0.00    +0.000 A 
ATOM     33  C   UNL     1     -12.463   8.588  72.138  0.00  0.00    +0.000 A 
ATOM     34  C   UNL     1     -13.363   9.621  72.010  0.00  0.00    +0.000 A 
ATOM     35  C   UNL     1     -12.888  10.818  71.482  0.00  0.00    +0.003 A 
ENDBRANCH  28  30
ENDBRANCH  27  28
ENDBRANCH  26  27
ENDBRANCH  24  26
ENDBRANCH  23  24
ENDBRANCH  22  23
ENDBRANCH  21  22
ENDBRANCH   8  21
TORSDOF 13
ENDMDL
MODEL 7
REMARK VINA RESULT:      -6.3      2.858      7.485
REMARK  Name = 
REMARK  13 active torsions:
REMARK  status: ('A' for Active; 'I' for Inactive)
REMARK    1  A    between atoms: C_3  and  C_4
REMARK    2  A    between atoms: C_4  and  C_5
REMARK    3  A    between atoms: C_5  and  C_7
REMARK    4  A    between atoms: C_7  and  C_9
REMARK    5  A    between atoms: C_10  and  C_11
REMARK    6  A    between atoms: C_15  and  C_16
REMARK    7  A    between atoms: C_16  and  C_17
REMARK    8  A    between atoms: C_17  and  C_18
REMARK    9  A    between atoms: C_18  and  C_19
REMARK   10  A    between atoms: C_19  and  O_21
REMARK   11  A    between atoms: O_21  and  C_22
REMARK   12  A    between atoms: C_22  and  C_23
REMARK   13  A    between atoms: C_23  and  C_25
REMARK                            x       y       z     vdW  Elec       q    Type
REMARK                         _______ _______ _______ _____ _____    ______ ____
ROOT
ATOM      1  C   UNL     1     -10.414   6.935  67.350  0.00  0.00    +0.052 C 
ATOM      2  C   UNL     1      -8.819   6.346  67.364  0.00  0.00    +0.156 C 
ATOM      3  O   UNL     1      -8.613   6.669  65.894  0.00  0.00    -0.223 OA
ATOM      4  C   UNL     1      -8.069   7.690  67.928  0.00  0.00    +0.034 C 
ATOM      5  C   UNL     1      -8.822   8.604  66.846  0.00  0.00    +0.007 C 
ATOM      6  C   UNL     1      -8.661  10.084  67.518  0.00  0.00    +0.022 C 
ATOM      7  C   UNL     1      -9.909  10.447  66.714  0.00  0.00    -0.048 C 
ATOM      8  C   UNL     1      -9.572  10.746  65.474  0.00  0.00    -0.035 C 
ATOM      9  C   UNL     1     -10.934   9.342  66.863  0.00  0.00    +0.022 C 
ATOM     10  C   UNL     1     -10.099   8.458  67.927  0.00  0.00    +0.011 C 
ENDROOT
BRANCH   1  12
ATOM     11  C   UNL     1     -11.587   6.733  69.590  0.00  0.00    +0.002 C 
ATOM     12  C   UNL     1     -10.660   6.320  68.792  0.00  0.00    -0.026 C 
BRANCH  11  13
ATOM     13  C   UNL     1     -11.261   6.220  71.094  0.00  0.00    +0.175 C 
ATOM     14  O   UNL     1      -9.920   5.667  70.660  0.00  0.00    -0.218 OA
BRANCH  13  15
ATOM     15  C   UNL     1     -10.568   7.708  71.578  0.00  0.00    +0.048 C 
ATOM     16  C   UNL     1     -10.517   7.306  73.145  0.00  0.00    +0.004 C 
BRANCH  15  17
ATOM     17  C   UNL     1     -12.014   8.412  71.753  0.00  0.00    +0.079 C 
BRANCH  17  20
ATOM     18  C   UNL     1     -11.910  11.784  69.541  0.00  0.00    +0.090 C 
ATOM     19  C   UNL     1     -11.673  10.765  70.519  0.00  0.00    -0.090 C 
ATOM     20  C   UNL     1     -11.900   9.754  71.158  0.00  0.00    -0.091 C 
ENDBRANCH  17  20
ENDBRANCH  15  17
ENDBRANCH  13  15
ENDBRANCH  11  13
ENDBRANCH   1  12
BRANCH   8  21
ATOM     21  C   UNL     1     -10.210  10.623  64.199  0.00  0.00    +0.026 C 
BRANCH  21  22
ATOM     22  C   UNL     1     -10.480  11.863  63.430  0.00  0.00    +0.016 C 
BRANCH  22  23
ATOM     23  C   UNL     1     -11.882  12.221  63.829  0.00  0.00    +0.110 C 
BRANCH  23  24
ATOM     24  C   UNL     1     -12.017  13.342  64.724  0.00  0.00    +0.317 C 
ATOM     25  O   UNL     1     -13.022  13.838  65.260  0.00  0.00    -0.250 OA
BRANCH  24  26
ATOM     26  O   UNL     1     -10.971  14.269  64.564  0.00  0.00    -0.440 OA
BRANCH  26  27
ATOM     27  C   UNL     1     -10.384  14.966  65.642  0.00  0.00    +0.277 C 
BRANCH  27  28
ATOM     28  C   UNL     1     -10.746  16.397  65.406  0.00  0.00    +0.217 C 
ATOM     29  O   UNL     1     -11.193  16.647  64.245  0.00  0.00    -0.287 OA
BRANCH  28  30
ATOM     30  C   UNL     1     -10.142  17.452  66.195  0.00  0.00    +0.038 A 
ATOM     31  C   UNL     1      -9.278  17.067  67.202  0.00  0.00    +0.003 A 
ATOM     32  C   UNL     1      -8.994  17.977  68.211  0.00  0.00    +0.000 A 
ATOM     33  C   UNL     1      -9.818  19.085  68.377  0.00  0.00    +0.000 A 
ATOM     34  C   UNL     1     -10.599  19.475  67.314  0.00  0.00    +0.000 A 
ATOM     35  C   UNL     1     -10.444  18.777  66.119  0.00  0.00    +0.003 A 
ENDBRANCH  28  30
ENDBRANCH  27  28
ENDBRANCH  26  27
ENDBRANCH  24  26
ENDBRANCH  23  24
ENDBRANCH  22  23
ENDBRANCH  21  22
ENDBRANCH   8  21
TORSDOF 13
ENDMDL
MODEL 8
REMARK VINA RESULT:      -6.2      2.182      6.456
REMARK  Name = 
REMARK  13 active torsions:
REMARK  status: ('A' for Active; 'I' for Inactive)
REMARK    1  A    between atoms: C_3  and  C_4
REMARK    2  A    between atoms: C_4  and  C_5
REMARK    3  A    between atoms: C_5  and  C_7
REMARK    4  A    between atoms: C_7  and  C_9
REMARK    5  A    between atoms: C_10  and  C_11
REMARK    6  A    between atoms: C_15  and  C_16
REMARK    7  A    between atoms: C_16  and  C_17
REMARK    8  A    between atoms: C_17  and  C_18
REMARK    9  A    between atoms: C_18  and  C_19
REMARK   10  A    between atoms: C_19  and  O_21
REMARK   11  A    between atoms: O_21  and  C_22
REMARK   12  A    between atoms: C_22  and  C_23
REMARK   13  A    between atoms: C_23  and  C_25
REMARK                            x       y       z     vdW  Elec       q    Type
REMARK                         _______ _______ _______ _____ _____    ______ ____
ROOT
ATOM      1  C   UNL     1      -9.481   7.366  67.940  0.00  0.00    +0.052 C 
ATOM      2  C   UNL     1      -7.824   7.337  68.324  0.00  0.00    +0.156 C 
ATOM      3  O   UNL     1      -7.432   7.930  66.981  0.00  0.00    -0.223 OA
ATOM      4  C   UNL     1      -7.742   8.750  69.152  0.00  0.00    +0.034 C 
ATOM      5  C   UNL     1      -8.516   9.521  67.977  0.00  0.00    +0.007 C 
ATOM      6  C   UNL     1      -9.040  10.851  68.766  0.00  0.00    +0.022 C 
ATOM      7  C   UNL     1     -10.129  10.904  67.695  0.00  0.00    -0.048 C 
ATOM      8  C   UNL     1      -9.659  11.482  66.606  0.00  0.00    -0.035 C 
ATOM      9  C   UNL     1     -10.701   9.516  67.500  0.00  0.00    +0.022 C 
ATOM     10  C   UNL     1      -9.860   8.802  68.681  0.00  0.00    +0.011 C 
ENDROOT
BRANCH   1  12
ATOM     11  C   UNL     1     -10.944   6.503  69.824  0.00  0.00    +0.002 C 
ATOM     12  C   UNL     1      -9.800   6.493  69.226  0.00  0.00    -0.026 C 
BRANCH  11  13
ATOM     13  C   UNL     1     -10.773   5.875  71.310  0.00  0.00    +0.175 C 
ATOM     14  O   UNL     1      -9.278   5.730  71.122  0.00  0.00    -0.218 OA
BRANCH  13  15
ATOM     15  C   UNL     1     -10.599   7.402  72.064  0.00  0.00    +0.048 C 
ATOM     16  C   UNL     1     -10.614   6.791  73.563  0.00  0.00    +0.004 C 
BRANCH  15  17
ATOM     17  C   UNL     1     -12.196   7.653  72.094  0.00  0.00    +0.079 C 
BRANCH  17  20
ATOM     18  C   UNL     1     -12.229  11.402  70.603  0.00  0.00    +0.090 C 
ATOM     19  C   UNL     1     -12.367  10.244  71.434  0.00  0.00    -0.090 C 
ATOM     20  C   UNL     1     -12.406   9.057  71.701  0.00  0.00    -0.091 C 
ENDBRANCH  17  20
ENDBRANCH  15  17
ENDBRANCH  13  15
ENDBRANCH  11  13
ENDBRANCH   1  12
BRANCH   8  21
ATOM     21  C   UNL     1      -9.918  11.354  65.205  0.00  0.00    +0.026 C 
BRANCH  21  22
ATOM     22  C   UNL     1     -10.795  12.363  64.561  0.00  0.00    +0.016 C 
BRANCH  22  23
ATOM     23  C   UNL     1     -10.874  13.458  65.584  0.00  0.00    +0.110 C 
BRANCH  23  24
ATOM     24  C   UNL     1     -12.201  13.879  65.957  0.00  0.00    +0.317 C 
ATOM     25  O   UNL     1     -13.239  13.985  65.283  0.00  0.00    -0.250 OA
BRANCH  24  26
ATOM     26  O   UNL     1     -12.185  14.736  67.072  0.00  0.00    -0.440 OA
BRANCH  26  27
ATOM     27  C   UNL     1     -11.550  14.408  68.289  0.00  0.00    +0.277 C 
BRANCH  27  28
ATOM     28  C   UNL     1     -11.902  15.530  69.212  0.00  0.00    +0.217 C 
ATOM     29  O   UNL     1     -11.415  16.656  68.888  0.00  0.00    -0.287 OA
BRANCH  28  30
ATOM     30  C   UNL     1     -12.272  15.267  70.588  0.00  0.00    +0.038 A 
ATOM     31  C   UNL     1     -13.572  14.860  70.823  0.00  0.00    +0.003 A 
ATOM     32  C   UNL     1     -14.078  14.978  72.110  0.00  0.00    +0.000 A 
ATOM     33  C   UNL     1     -13.419  15.793  73.025  0.00  0.00    +0.000 A 
ATOM     34  C   UNL     1     -12.100  16.102  72.785  0.00  0.00    +0.000 A 
ATOM     35  C   UNL     1     -11.497  15.505  71.682  0.00  0.00    +0.003 A 
ENDBRANCH  28  30
ENDBRANCH  27  28
ENDBRANCH  26  27
ENDBRANCH  24  26
ENDBRANCH  23  24
ENDBRANCH  22  23
ENDBRANCH  21  22
ENDBRANCH   8  21
TORSDOF 13
ENDMDL
MODEL 9
REMARK VINA RESULT:      -6.1      4.135      8.097
REMARK  Name = 
REMARK  13 active torsions:
REMARK  status: ('A' for Active; 'I' for Inactive)
REMARK    1  A    between atoms: C_3  and  C_4
REMARK    2  A    between atoms: C_4  and  C_5
REMARK    3  A    between atoms: C_5  and  C_7
REMARK    4  A    between atoms: C_7  and  C_9
REMARK    5  A    between atoms: C_10  and  C_11
REMARK    6  A    between atoms: C_15  and  C_16
REMARK    7  A    between atoms: C_16  and  C_17
REMARK    8  A    between atoms: C_17  and  C_18
REMARK    9  A    between atoms: C_18  and  C_19
REMARK   10  A    between atoms: C_19  and  O_21
REMARK   11  A    between atoms: O_21  and  C_22
REMARK   12  A    between atoms: C_22  and  C_23
REMARK   13  A    between atoms: C_23  and  C_25
REMARK                            x       y       z     vdW  Elec       q    Type
REMARK                         _______ _______ _______ _____ _____    ______ ____
ROOT
ATOM      1  C   UNL     1      -8.737  19.252  66.263  0.00  0.00    +0.052 C 
ATOM      2  C   UNL     1      -9.644  20.219  67.329  0.00  0.00    +0.156 C 
ATOM      3  O   UNL     1     -10.963  19.662  66.822  0.00  0.00    -0.223 OA
ATOM      4  C   UNL     1      -9.564  19.257  68.655  0.00  0.00    +0.034 C 
ATOM      5  C   UNL     1     -10.005  17.978  67.793  0.00  0.00    +0.007 C 
ATOM      6  C   UNL     1      -9.501  16.761  68.758  0.00  0.00    +0.022 C 
ATOM      7  C   UNL     1      -9.448  15.933  67.474  0.00  0.00    -0.048 C 
ATOM      8  C   UNL     1     -10.653  15.480  67.184  0.00  0.00    -0.035 C 
ATOM      9  C   UNL     1      -8.777  16.745  66.388  0.00  0.00    +0.022 C 
ATOM     10  C   UNL     1      -8.397  18.014  67.313  0.00  0.00    +0.011 C 
ENDROOT
BRANCH   1  12
ATOM     11  C   UNL     1      -6.269  19.518  66.785  0.00  0.00    +0.002 C 
ATOM     12  C   UNL     1      -7.426  20.069  66.628  0.00  0.00    -0.026 C 
BRANCH  11  13
ATOM     13  C   UNL     1      -5.295  20.545  67.578  0.00  0.00    +0.175 C 
ATOM     14  O   UNL     1      -6.357  21.624  67.571  0.00  0.00    -0.218 OA
BRANCH  13  15
ATOM     15  C   UNL     1      -5.773  19.989  69.125  0.00  0.00    +0.048 C 
ATOM     16  C   UNL     1      -4.835  21.042  69.920  0.00  0.00    +0.004 C 
BRANCH  15  17
ATOM     17  C   UNL     1      -4.619  18.857  69.158  0.00  0.00    +0.079 C 
BRANCH  17  20
ATOM     18  C   UNL     1      -6.349  15.266  69.780  0.00  0.00    +0.090 C 
ATOM     19  C   UNL     1      -5.946  16.638  69.858  0.00  0.00    -0.090 C 
ATOM     20  C   UNL     1      -5.262  17.617  69.626  0.00  0.00    -0.091 C 
ENDBRANCH  17  20
ENDBRANCH  15  17
ENDBRANCH  13  15
ENDBRANCH  11  13
ENDBRANCH   1  12
BRANCH   8  21
ATOM     21  C   UNL     1     -11.347  15.168  65.972  0.00  0.00    +0.026 C 
BRANCH  21  22
ATOM     22  C   UNL     1     -10.829  14.059  65.134  0.00  0.00    +0.016 C 
BRANCH  22  23
ATOM     23  C   UNL     1     -12.057  13.253  64.827  0.00  0.00    +0.110 C 
BRANCH  23  24
ATOM     24  C   UNL     1     -12.009  12.462  63.622  0.00  0.00    +0.317 C 
ATOM     25  O   UNL     1     -12.878  11.767  63.072  0.00  0.00    -0.250 OA
BRANCH  24  26
ATOM     26  O   UNL     1     -10.701  12.036  63.328  0.00  0.00    -0.440 OA
BRANCH  26  27
ATOM     27  C   UNL     1     -10.282  10.694  63.445  0.00  0.00    +0.277 C 
BRANCH  27  28
ATOM     28  C   UNL     1      -9.091  10.749  64.348  0.00  0.00    +0.217 C 
ATOM     29  O   UNL     1      -8.027  10.269  63.852  0.00  0.00    -0.287 OA
BRANCH  28  30
ATOM     30  C   UNL     1      -9.258  10.818  65.786  0.00  0.00    +0.038 A 
ATOM     31  C   UNL     1     -10.426  10.299  66.310  0.00  0.00    +0.003 A 
ATOM     32  C   UNL     1     -10.805  10.685  67.588  0.00  0.00    +0.000 A 
ATOM     33  C   UNL     1     -10.216  11.808  68.159  0.00  0.00    +0.000 A 
ATOM     34  C   UNL     1      -9.011  12.235  67.653  0.00  0.00    +0.000 A 
ATOM     35  C   UNL     1      -8.429  11.459  66.655  0.00  0.00    +0.003 A 
ENDBRANCH  28  30
ENDBRANCH  27  28
ENDBRANCH  26  27
ENDBRANCH  24  26
ENDBRANCH  23  24
ENDBRANCH  22  23
ENDBRANCH  21  22
ENDBRANCH   8  21
TORSDOF 13
ENDMDL
