MODEL 1
REMARK VINA RESULT:      -7.8      0.000      0.000
REMARK  Name = 
REMARK  0 active torsions:
REMARK  status: ('A' for Active; 'I' for Inactive)
REMARK                            x       y       z     vdW  Elec       q    Type
REMARK                         _______ _______ _______ _____ _____    ______ ____
ROOT
ATOM      1 CL   UNL     1     -12.531  16.340  74.005  0.00  0.00    -0.082 Cl
ATOM      2  C   UNL     1     -12.607  15.382  72.549  0.00  0.00    +0.057 A 
ATOM      3  C   UNL     1     -13.181  14.119  72.498  0.00  0.00    +0.007 A 
ATOM      4  C   UNL     1     -12.934  13.240  71.449  0.00  0.00    -0.021 A 
ATOM      5  C   UNL     1     -13.012  11.860  71.966  0.00  0.00    +0.031 C 
ATOM      6  C   UNL     1     -13.090  10.809  70.899  0.00  0.00    +0.033 C 
ATOM      7  C   UNL     1     -11.808  10.683  70.137  0.00  0.00    -0.004 A 
ATOM      8  C   UNL     1     -11.325  11.618  69.229  0.00  0.00    +0.077 A 
ATOM      9  C   UNL     1     -11.600  13.059  69.294  0.00  0.00    +0.009 C 
ATOM     10  C   UNL     1     -11.047  13.751  68.305  0.00  0.00    -0.040 C 
ATOM     11  C   UNL     1     -11.877  14.025  67.119  0.00  0.00    +0.041 C 
ATOM     12  C   UNL     1     -11.077  14.902  66.191  0.00  0.00    +0.093 C 
ATOM     13  N   UNL     1      -9.764  14.301  66.065  0.00  0.00    -0.217 NA
ATOM     14  C   UNL     1      -8.975  14.632  67.248  0.00  0.00    +0.093 C 
ATOM     15  C   UNL     1      -9.680  14.253  68.520  0.00  0.00    +0.041 C 
ATOM     16  N   UNL     1     -10.235  11.325  68.480  0.00  0.00    -0.244 NA
ATOM     17  C   UNL     1      -9.598  10.142  68.654  0.00  0.00    +0.099 A 
ATOM     18  C   UNL     1      -9.878   9.401  69.796  0.00  0.00    +0.020 A 
ATOM     19  C   UNL     1     -11.118   9.509  70.418  0.00  0.00    -0.001 A 
ATOM     20  C   UNL     1     -12.303  13.803  70.346  0.00  0.00    -0.003 A 
ATOM     21  C   UNL     1     -12.041  15.146  70.250  0.00  0.00    +0.001 A 
ATOM     22  C   UNL     1     -12.043  15.915  71.404  0.00  0.00    +0.011 A 
ENDROOT
TORSDOF 0
ENDMDL
MODEL 2
REMARK VINA RESULT:      -7.6      2.625      4.122
REMARK  Name = 
REMARK  0 active torsions:
REMARK  status: ('A' for Active; 'I' for Inactive)
REMARK                            x       y       z     vdW  Elec       q    Type
REMARK                         _______ _______ _______ _____ _____    ______ ____
ROOT
ATOM      1 CL   UNL     1      -7.747  18.671  68.002  0.00  0.00    -0.082 Cl
ATOM      2  C   UNL     1      -9.113  17.613  67.759  0.00  0.00    +0.057 A 
ATOM      3  C   UNL     1     -10.113  17.433  68.705  0.00  0.00    +0.007 A 
ATOM      4  C   UNL     1     -10.990  16.354  68.652  0.00  0.00    -0.021 A 
ATOM      5  C   UNL     1     -11.385  16.004  70.031  0.00  0.00    +0.031 C 
ATOM      6  C   UNL     1     -12.565  15.082  70.115  0.00  0.00    +0.033 C 
ATOM      7  C   UNL     1     -12.241  13.705  69.625  0.00  0.00    -0.004 A 
ATOM      8  C   UNL     1     -12.024  13.362  68.296  0.00  0.00    +0.077 A 
ATOM      9  C   UNL     1     -11.484  14.273  67.280  0.00  0.00    +0.009 C 
ATOM     10  C   UNL     1     -11.384  13.727  66.074  0.00  0.00    -0.040 C 
ATOM     11  C   UNL     1     -12.500  13.939  65.136  0.00  0.00    +0.041 C 
ATOM     12  C   UNL     1     -12.116  13.319  63.817  0.00  0.00    +0.093 C 
ATOM     13  N   UNL     1     -11.618  11.988  64.101  0.00  0.00    -0.217 NA
ATOM     14  C   UNL     1     -10.245  12.089  64.589  0.00  0.00    +0.093 C 
ATOM     15  C   UNL     1     -10.128  13.027  65.756  0.00  0.00    +0.041 C 
ATOM     16  N   UNL     1     -11.896  12.057  67.952  0.00  0.00    -0.244 NA
ATOM     17  C   UNL     1     -11.935  11.102  68.912  0.00  0.00    +0.099 A 
ATOM     18  C   UNL     1     -11.789  11.491  70.239  0.00  0.00    +0.020 A 
ATOM     19  C   UNL     1     -12.178  12.763  70.646  0.00  0.00    -0.001 A 
ATOM     20  C   UNL     1     -10.967  15.635  67.463  0.00  0.00    -0.003 A 
ATOM     21  C   UNL     1     -10.219  16.022  66.379  0.00  0.00    +0.001 A 
ATOM     22  C   UNL     1      -9.173  16.912  66.569  0.00  0.00    +0.011 A 
ENDROOT
TORSDOF 0
ENDMDL
MODEL 3
REMARK VINA RESULT:      -7.4      3.356      5.387
REMARK  Name = 
REMARK  0 active torsions:
REMARK  status: ('A' for Active; 'I' for Inactive)
REMARK                            x       y       z     vdW  Elec       q    Type
REMARK                         _______ _______ _______ _____ _____    ______ ____
ROOT
ATOM      1 CL   UNL     1     -12.123  12.707  63.183  0.00  0.00    -0.082 Cl
ATOM      2  C   UNL     1     -11.375  13.136  64.699  0.00  0.00    +0.057 A 
ATOM      3  C   UNL     1     -11.404  12.318  65.821  0.00  0.00    +0.007 A 
ATOM      4  C   UNL     1     -11.117  12.803  67.092  0.00  0.00    -0.021 A 
ATOM      5  C   UNL     1     -11.895  12.025  68.076  0.00  0.00    +0.031 C 
ATOM      6  C   UNL     1     -11.450  12.212  69.496  0.00  0.00    +0.033 C 
ATOM      7  C   UNL     1     -11.761  13.584  70.009  0.00  0.00    -0.004 A 
ATOM      8  C   UNL     1     -11.111  14.748  69.616  0.00  0.00    +0.077 A 
ATOM      9  C   UNL     1     -10.501  14.954  68.296  0.00  0.00    +0.009 C 
ATOM     10  C   UNL     1      -9.920  16.140  68.158  0.00  0.00    -0.040 C 
ATOM     11  C   UNL     1      -8.474  16.225  68.427  0.00  0.00    +0.041 C 
ATOM     12  C   UNL     1      -8.029  17.629  68.107  0.00  0.00    +0.093 C 
ATOM     13  N   UNL     1      -8.966  18.529  68.750  0.00  0.00    -0.217 NA
ATOM     14  C   UNL     1     -10.181  18.604  67.943  0.00  0.00    +0.093 C 
ATOM     15  C   UNL     1     -10.760  17.246  67.667  0.00  0.00    +0.041 C 
ATOM     16  N   UNL     1     -11.367  15.911  70.263  0.00  0.00    -0.244 NA
ATOM     17  C   UNL     1     -12.287  15.937  71.257  0.00  0.00    +0.099 A 
ATOM     18  C   UNL     1     -13.162  14.865  71.378  0.00  0.00    +0.020 A 
ATOM     19  C   UNL     1     -12.785  13.597  70.948  0.00  0.00    -0.001 A 
ATOM     20  C   UNL     1     -10.549  14.071  67.125  0.00  0.00    -0.003 A 
ATOM     21  C   UNL     1     -10.194  14.751  65.987  0.00  0.00    +0.001 A 
ATOM     22  C   UNL     1     -10.746  14.365  64.775  0.00  0.00    +0.011 A 
ENDROOT
TORSDOF 0
ENDMDL
MODEL 4
REMARK VINA RESULT:      -7.4      3.009      5.747
REMARK  Name = 
REMARK  0 active torsions:
REMARK  status: ('A' for Active; 'I' for Inactive)
REMARK                            x       y       z     vdW  Elec       q    Type
REMARK                         _______ _______ _______ _____ _____    ______ ____
ROOT
ATOM      1 CL   UNL     1     -10.394   8.856  69.183  0.00  0.00    -0.082 Cl
ATOM      2  C   UNL     1     -11.186  10.406  69.080  0.00  0.00    +0.057 A 
ATOM      3  C   UNL     1     -11.354  11.097  67.887  0.00  0.00    +0.007 A 
ATOM      4  C   UNL     1     -11.665  12.453  67.860  0.00  0.00    -0.021 A 
ATOM      5  C   UNL     1     -11.078  13.043  66.641  0.00  0.00    +0.031 C 
ATOM      6  C   UNL     1     -11.597  14.411  66.311  0.00  0.00    +0.033 C 
ATOM      7  C   UNL     1     -11.138  15.442  67.295  0.00  0.00    -0.004 A 
ATOM      8  C   UNL     1     -11.588  15.550  68.605  0.00  0.00    +0.077 A 
ATOM      9  C   UNL     1     -12.064  14.422  69.416  0.00  0.00    +0.009 C 
ATOM     10  C   UNL     1     -12.463  14.772  70.633  0.00  0.00    -0.040 C 
ATOM     11  C   UNL     1     -13.899  15.036  70.829  0.00  0.00    +0.041 C 
ATOM     12  C   UNL     1     -14.120  15.311  72.295  0.00  0.00    +0.093 C 
ATOM     13  N   UNL     1     -13.117  16.276  72.702  0.00  0.00    -0.217 NA
ATOM     14  C   UNL     1     -11.847  15.584  72.902  0.00  0.00    +0.093 C 
ATOM     15  C   UNL     1     -11.443  14.785  71.696  0.00  0.00    +0.041 C 
ATOM     16  N   UNL     1     -11.222  16.617  69.355  0.00  0.00    -0.244 NA
ATOM     17  C   UNL     1     -10.384  17.546  68.836  0.00  0.00    +0.099 A 
ATOM     18  C   UNL     1      -9.678  17.230  67.682  0.00  0.00    +0.020 A 
ATOM     19  C   UNL     1     -10.194  16.317  66.769  0.00  0.00    -0.001 A 
ATOM     20  C   UNL     1     -12.052  12.993  69.081  0.00  0.00    -0.003 A 
ATOM     21  C   UNL     1     -12.223  12.227  70.207  0.00  0.00    +0.001 A 
ATOM     22  C   UNL     1     -11.642  10.969  70.258  0.00  0.00    +0.011 A 
ENDROOT
TORSDOF 0
ENDMDL
MODEL 5
REMARK VINA RESULT:      -6.7      2.791      5.312
REMARK  Name = 
REMARK  0 active torsions:
REMARK  status: ('A' for Active; 'I' for Inactive)
REMARK                            x       y       z     vdW  Elec       q    Type
REMARK                         _______ _______ _______ _____ _____    ______ ____
ROOT
ATOM      1 CL   UNL     1     -13.187  11.041  71.857  0.00  0.00    -0.082 Cl
ATOM      2  C   UNL     1     -12.070  11.341  70.551  0.00  0.00    +0.057 A 
ATOM      3  C   UNL     1     -12.012  12.544  69.860  0.00  0.00    +0.007 A 
ATOM      4  C   UNL     1     -11.379  12.654  68.627  0.00  0.00    -0.021 A 
ATOM      5  C   UNL     1     -12.062  13.702  67.843  0.00  0.00    +0.031 C 
ATOM      6  C   UNL     1     -11.301  14.157  66.633  0.00  0.00    +0.033 C 
ATOM      7  C   UNL     1     -11.239  13.099  65.575  0.00  0.00    -0.004 A 
ATOM      8  C   UNL     1     -10.484  11.935  65.655  0.00  0.00    +0.077 A 
ATOM      9  C   UNL     1     -10.139  11.253  66.909  0.00  0.00    +0.009 C 
ATOM     10  C   UNL     1      -9.392  10.169  66.736  0.00  0.00    -0.040 C 
ATOM     11  C   UNL     1      -7.931  10.323  66.852  0.00  0.00    +0.041 C 
ATOM     12  C   UNL     1      -7.313   8.955  66.721  0.00  0.00    +0.093 C 
ATOM     13  N   UNL     1      -7.911   8.327  65.560  0.00  0.00    -0.217 NA
ATOM     14  C   UNL     1      -9.234   7.824  65.921  0.00  0.00    +0.093 C 
ATOM     15  C   UNL     1     -10.098   8.894  66.526  0.00  0.00    +0.041 C 
ATOM     16  N   UNL     1     -10.380  11.127  64.572  0.00  0.00    -0.244 NA
ATOM     17  C   UNL     1     -11.048  11.438  63.436  0.00  0.00    +0.099 A 
ATOM     18  C   UNL     1     -12.060  12.388  63.501  0.00  0.00    +0.020 A 
ATOM     19  C   UNL     1     -12.022  13.390  64.464  0.00  0.00    -0.001 A 
ATOM     20  C   UNL     1     -10.594  11.565  68.269  0.00  0.00    -0.003 A 
ATOM     21  C   UNL     1     -10.368  10.507  69.113  0.00  0.00    +0.001 A 
ATOM     22  C   UNL     1     -11.224  10.310  70.186  0.00  0.00    +0.011 A 
ENDROOT
TORSDOF 0
ENDMDL
MODEL 6
REMARK VINA RESULT:      -6.7      4.346      7.390
REMARK  Name = 
REMARK  0 active torsions:
REMARK  status: ('A' for Active; 'I' for Inactive)
REMARK                            x       y       z     vdW  Elec       q    Type
REMARK                         _______ _______ _______ _____ _____    ______ ____
ROOT
ATOM      1 CL   UNL     1      -7.004  10.424  61.725  0.00  0.00    -0.082 Cl
ATOM      2  C   UNL     1      -8.279  10.308  62.909  0.00  0.00    +0.057 A 
ATOM      3  C   UNL     1      -9.537  10.870  62.730  0.00  0.00    +0.007 A 
ATOM      4  C   UNL     1     -10.411  11.069  63.794  0.00  0.00    -0.021 A 
ATOM      5  C   UNL     1     -11.243  12.253  63.500  0.00  0.00    +0.031 C 
ATOM      6  C   UNL     1     -12.439  12.398  64.393  0.00  0.00    +0.033 C 
ATOM      7  C   UNL     1     -12.055  12.745  65.798  0.00  0.00    -0.004 A 
ATOM      8  C   UNL     1     -11.448  11.875  66.696  0.00  0.00    +0.077 A 
ATOM      9  C   UNL     1     -10.562  10.769  66.312  0.00  0.00    +0.009 C 
ATOM     10  C   UNL     1     -10.116  10.062  67.344  0.00  0.00    -0.040 C 
ATOM     11  C   UNL     1     -10.863   8.845  67.709  0.00  0.00    +0.041 C 
ATOM     12  C   UNL     1     -10.116   8.166  68.828  0.00  0.00    +0.093 C 
ATOM     13  N   UNL     1      -9.811   9.184  69.814  0.00  0.00    -0.217 NA
ATOM     14  C   UNL     1      -8.660   9.958  69.357  0.00  0.00    +0.093 C 
ATOM     15  C   UNL     1      -8.866  10.514  67.977  0.00  0.00    +0.041 C 
ATOM     16  N   UNL     1     -11.292  12.248  67.989  0.00  0.00    -0.244 NA
ATOM     17  C   UNL     1     -11.687  13.481  68.386  0.00  0.00    +0.099 A 
ATOM     18  C   UNL     1     -11.949  14.438  67.412  0.00  0.00    +0.020 A 
ATOM     19  C   UNL     1     -12.373  14.053  66.145  0.00  0.00    -0.001 A 
ATOM     20  C   UNL     1     -10.054  10.433  64.977  0.00  0.00    -0.003 A 
ATOM     21  C   UNL     1      -8.980   9.583  65.064  0.00  0.00    +0.001 A 
ATOM     22  C   UNL     1      -7.999   9.638  64.086  0.00  0.00    +0.011 A 
ENDROOT
TORSDOF 0
ENDMDL
MODEL 7
REMARK VINA RESULT:      -6.5      3.063      4.916
REMARK  Name = 
REMARK  0 active torsions:
REMARK  status: ('A' for Active; 'I' for Inactive)
REMARK                            x       y       z     vdW  Elec       q    Type
REMARK                         _______ _______ _______ _____ _____    ______ ____
ROOT
ATOM      1 CL   UNL     1     -12.381  13.554  64.033  0.00  0.00    -0.082 Cl
ATOM      2  C   UNL     1     -11.883  13.406  65.698  0.00  0.00    +0.057 A 
ATOM      3  C   UNL     1     -11.186  12.309  66.189  0.00  0.00    +0.007 A 
ATOM      4  C   UNL     1     -11.100  12.043  67.552  0.00  0.00    -0.021 A 
ATOM      5  C   UNL     1     -11.001  10.581  67.737  0.00  0.00    +0.031 C 
ATOM      6  C   UNL     1     -10.578  10.166  69.115  0.00  0.00    +0.033 C 
ATOM      7  C   UNL     1     -11.636  10.443  70.138  0.00  0.00    -0.004 A 
ATOM      8  C   UNL     1     -11.994  11.707  70.591  0.00  0.00    +0.077 A 
ATOM      9  C   UNL     1     -11.889  12.937  69.795  0.00  0.00    +0.009 C 
ATOM     10  C   UNL     1     -12.272  14.028  70.448  0.00  0.00    -0.040 C 
ATOM     11  C   UNL     1     -11.228  14.818  71.123  0.00  0.00    +0.041 C 
ATOM     12  C   UNL     1     -11.883  16.047  71.700  0.00  0.00    +0.093 C 
ATOM     13  N   UNL     1     -13.066  15.604  72.411  0.00  0.00    -0.217 NA
ATOM     14  C   UNL     1     -14.131  15.345  71.446  0.00  0.00    +0.093 C 
ATOM     15  C   UNL     1     -13.696  14.392  70.369  0.00  0.00    +0.041 C 
ATOM     16  N   UNL     1     -12.852  11.828  71.633  0.00  0.00    -0.244 NA
ATOM     17  C   UNL     1     -13.388  10.718  72.194  0.00  0.00    +0.099 A 
ATOM     18  C   UNL     1     -13.299   9.517  71.501  0.00  0.00    +0.020 A 
ATOM     19  C   UNL     1     -12.249   9.291  70.617  0.00  0.00    -0.001 A 
ATOM     20  C   UNL     1     -11.520  13.076  68.382  0.00  0.00    -0.003 A 
ATOM     21  C   UNL     1     -11.889  14.306  67.901  0.00  0.00    +0.001 A 
ATOM     22  C   UNL     1     -12.225  14.431  66.561  0.00  0.00    +0.011 A 
ENDROOT
TORSDOF 0
ENDMDL
MODEL 8
REMARK VINA RESULT:      -6.4      2.419      4.974
REMARK  Name = 
REMARK  0 active torsions:
REMARK  status: ('A' for Active; 'I' for Inactive)
REMARK                            x       y       z     vdW  Elec       q    Type
REMARK                         _______ _______ _______ _____ _____    ______ ____
ROOT
ATOM      1 CL   UNL     1     -14.307   8.784  72.517  0.00  0.00    -0.082 Cl
ATOM      2  C   UNL     1     -13.010   9.544  71.631  0.00  0.00    +0.057 A 
ATOM      3  C   UNL     1     -12.845  10.921  71.557  0.00  0.00    +0.007 A 
ATOM      4  C   UNL     1     -12.039  11.513  70.590  0.00  0.00    -0.021 A 
ATOM      5  C   UNL     1     -12.594  12.843  70.270  0.00  0.00    +0.031 C 
ATOM      6  C   UNL     1     -11.662  13.725  69.493  0.00  0.00    +0.033 C 
ATOM      7  C   UNL     1     -11.455  13.233  68.094  0.00  0.00    -0.004 A 
ATOM      8  C   UNL     1     -10.727  12.101  67.747  0.00  0.00    +0.077 A 
ATOM      9  C   UNL     1     -10.571  10.918  68.603  0.00  0.00    +0.009 C 
ATOM     10  C   UNL     1      -9.815   9.968  68.066  0.00  0.00    -0.040 C 
ATOM     11  C   UNL     1      -8.385   9.954  68.423  0.00  0.00    +0.041 C 
ATOM     12  C   UNL     1      -7.764   8.740  67.781  0.00  0.00    +0.093 C 
ATOM     13  N   UNL     1      -8.191   8.725  66.396  0.00  0.00    -0.217 NA
ATOM     14  C   UNL     1      -9.556   8.209  66.327  0.00  0.00    +0.093 C 
ATOM     15  C   UNL     1     -10.491   8.965  67.227  0.00  0.00    +0.041 C 
ATOM     16  N   UNL     1     -10.472  11.841  66.442  0.00  0.00    -0.244 NA
ATOM     17  C   UNL     1     -10.966  12.662  65.484  0.00  0.00    +0.099 A 
ATOM     18  C   UNL     1     -11.971  13.556  65.833  0.00  0.00    +0.020 A 
ATOM     19  C   UNL     1     -12.067  14.034  67.136  0.00  0.00    -0.001 A 
ATOM     20  C   UNL     1     -11.217  10.637  69.891  0.00  0.00    -0.003 A 
ATOM     21  C   UNL     1     -11.123   9.304  70.202  0.00  0.00    +0.001 A 
ATOM     22  C   UNL     1     -12.127   8.719  70.959  0.00  0.00    +0.011 A 
ENDROOT
TORSDOF 0
ENDMDL
MODEL 9
REMARK VINA RESULT:      -6.2      3.968      6.414
REMARK  Name = 
REMARK  0 active torsions:
REMARK  status: ('A' for Active; 'I' for Inactive)
REMARK                            x       y       z     vdW  Elec       q    Type
REMARK                         _______ _______ _______ _____ _____    ______ ____
ROOT
ATOM      1 CL   UNL     1     -10.721   4.627  65.883  0.00  0.00    -0.082 Cl
ATOM      2  C   UNL     1     -10.350   5.886  67.032  0.00  0.00    +0.057 A 
ATOM      3  C   UNL     1     -10.336   5.682  68.406  0.00  0.00    +0.007 A 
ATOM      4  C   UNL     1     -10.382   6.740  69.307  0.00  0.00    -0.021 A 
ATOM      5  C   UNL     1     -11.071   6.284  70.530  0.00  0.00    +0.031 C 
ATOM      6  C   UNL     1     -10.912   7.204  71.703  0.00  0.00    +0.033 C 
ATOM      7  C   UNL     1     -11.643   8.496  71.511  0.00  0.00    -0.004 A 
ATOM      8  C   UNL     1     -11.266   9.501  70.628  0.00  0.00    +0.077 A 
ATOM      9  C   UNL     1     -10.537   9.275  69.373  0.00  0.00    +0.009 C 
ATOM     10  C   UNL     1     -10.270  10.391  68.705  0.00  0.00    -0.040 C 
ATOM     11  C   UNL     1      -8.955  11.018  68.923  0.00  0.00    +0.041 C 
ATOM     12  C   UNL     1      -8.847  12.196  67.990  0.00  0.00    +0.093 C 
ATOM     13  N   UNL     1     -10.072  12.959  68.124  0.00  0.00    -0.217 NA
ATOM     14  C   UNL     1     -11.127  12.300  67.359  0.00  0.00    +0.093 C 
ATOM     15  C   UNL     1     -11.284  10.856  67.743  0.00  0.00    +0.041 C 
ATOM     16  N   UNL     1     -11.912  10.693  70.652  0.00  0.00    -0.244 NA
ATOM     17  C   UNL     1     -12.947  10.878  71.506  0.00  0.00    +0.099 A 
ATOM     18  C   UNL     1     -13.521   9.763  72.103  0.00  0.00    +0.020 A 
ATOM     19  C   UNL     1     -12.767   8.615  72.320  0.00  0.00    -0.001 A 
ATOM     20  C   UNL     1     -10.174   7.997  68.750  0.00  0.00    -0.003 A 
ATOM     21  C   UNL     1      -9.840   8.175  67.431  0.00  0.00    +0.001 A 
ATOM     22  C   UNL     1     -10.081   7.147  66.533  0.00  0.00    +0.011 A 
ENDROOT
TORSDOF 0
ENDMDL
