MODEL 1
REMARK VINA RESULT:      -5.7      0.000      0.000
REMARK  Name = 
REMARK  7 active torsions:
REMARK  status: ('A' for Active; 'I' for Inactive)
REMARK    1  A    between atoms: O_2  and  C_3
REMARK    2  A    between atoms: C_8  and  O_9
REMARK    3  A    between atoms: O_9  and  C_10
REMARK    4  A    between atoms: C_10  and  C_11
REMARK    5  A    between atoms: C_11  and  C_13
REMARK    6  A    between atoms: C_13  and  O_14
REMARK    7  A    between atoms: O_14  and  C_15
REMARK                            x       y       z     vdW  Elec       q    Type
REMARK                         _______ _______ _______ _____ _____    ______ ____
ROOT
ATOM      1  O   UNL     1     -11.476  13.622  69.188  0.00  0.00    -0.470 OA
ENDROOT
BRANCH   1   3
ATOM      2  C   UNL     1     -12.698  13.059  71.090  0.00  0.00    +0.172 A 
ATOM      3  C   UNL     1     -12.320  14.044  70.220  0.00  0.00    +0.172 A 
ATOM      4  C   UNL     1     -12.240  15.329  70.746  0.00  0.00    +0.040 A 
ATOM      5  C   UNL     1     -12.949  15.628  71.904  0.00  0.00    +0.003 A 
ATOM      6  C   UNL     1     -13.715  14.672  72.531  0.00  0.00    +0.003 A 
ATOM      7  C   UNL     1     -13.515  13.367  72.171  0.00  0.00    +0.040 A 
BRANCH   2   9
ATOM      8  C   UNL     1     -13.046  10.690  71.684  0.00  0.00    +0.253 C 
ATOM      9  O   UNL     1     -12.417  11.706  70.912  0.00  0.00    -0.468 OA
ENDBRANCH   2   9
ENDBRANCH   1   3
BRANCH   1  10
ATOM     10  C   UNL     1     -11.908  13.753  67.850  0.00  0.00    +0.242 C 
BRANCH  10  11
ATOM     11  C   UNL     1     -10.979  12.650  67.013  0.00  0.00    +0.239 C 
ATOM     12  O   UNL     1     -12.179  12.239  66.149  0.00  0.00    -0.215 OA
BRANCH  11  13
ATOM     13  C   UNL     1     -10.472  13.823  65.952  0.00  0.00    +0.247 C 
BRANCH  13  14
ATOM     14  O   UNL     1     -11.483  14.796  65.910  0.00  0.00    -0.430 OA
BRANCH  14  15
ATOM     15  C   UNL     1     -11.693  15.352  64.644  0.00  0.00    +0.441 C 
ATOM     16  O   UNL     1     -12.594  14.862  63.904  0.00  0.00    -0.223 OA
ATOM     17  N   UNL     1     -11.294  16.678  64.289  0.00  0.00    -0.048 NA
ENDBRANCH  14  15
ENDBRANCH  13  14
ENDBRANCH  11  13
ENDBRANCH  10  11
ENDBRANCH   1  10
TORSDOF 7
ENDMDL
MODEL 2
REMARK VINA RESULT:      -5.7      1.412      2.640
REMARK  Name = 
REMARK  7 active torsions:
REMARK  status: ('A' for Active; 'I' for Inactive)
REMARK    1  A    between atoms: O_2  and  C_3
REMARK    2  A    between atoms: C_8  and  O_9
REMARK    3  A    between atoms: O_9  and  C_10
REMARK    4  A    between atoms: C_10  and  C_11
REMARK    5  A    between atoms: C_11  and  C_13
REMARK    6  A    between atoms: C_13  and  O_14
REMARK    7  A    between atoms: O_14  and  C_15
REMARK                            x       y       z     vdW  Elec       q    Type
REMARK                         _______ _______ _______ _____ _____    ______ ____
ROOT
ATOM      1  O   UNL     1     -11.872  13.722  68.744  0.00  0.00    -0.470 OA
ENDROOT
BRANCH   1   3
ATOM      2  C   UNL     1     -12.015  15.499  70.245  0.00  0.00    +0.172 A 
ATOM      3  C   UNL     1     -11.999  14.143  70.072  0.00  0.00    +0.172 A 
ATOM      4  C   UNL     1     -12.710  13.398  71.006  0.00  0.00    +0.040 A 
ATOM      5  C   UNL     1     -12.985  13.959  72.248  0.00  0.00    +0.003 A 
ATOM      6  C   UNL     1     -12.569  15.236  72.554  0.00  0.00    +0.003 A 
ATOM      7  C   UNL     1     -12.164  16.033  71.519  0.00  0.00    +0.040 A 
BRANCH   2   9
ATOM      8  C   UNL     1     -10.492  17.013  69.030  0.00  0.00    +0.253 C 
ATOM      9  O   UNL     1     -11.770  16.421  69.229  0.00  0.00    -0.468 OA
ENDBRANCH   2   9
ENDBRANCH   1   3
BRANCH   1  10
ATOM     10  C   UNL     1     -10.594  13.378  68.251  0.00  0.00    +0.242 C 
BRANCH  10  11
ATOM     11  C   UNL     1     -10.876  12.919  66.674  0.00  0.00    +0.239 C 
ATOM     12  O   UNL     1     -12.086  12.076  67.096  0.00  0.00    -0.215 OA
BRANCH  11  13
ATOM     13  C   UNL     1     -11.779  14.285  66.398  0.00  0.00    +0.247 C 
BRANCH  13  14
ATOM     14  O   UNL     1     -11.691  14.560  65.023  0.00  0.00    -0.430 OA
BRANCH  14  15
ATOM     15  C   UNL     1     -11.055  15.767  64.718  0.00  0.00    +0.441 C 
ATOM     16  O   UNL     1     -11.645  16.593  63.964  0.00  0.00    -0.223 OA
ATOM     17  N   UNL     1     -10.015  16.335  65.516  0.00  0.00    -0.048 NA
ENDBRANCH  14  15
ENDBRANCH  13  14
ENDBRANCH  11  13
ENDBRANCH  10  11
ENDBRANCH   1  10
TORSDOF 7
ENDMDL
MODEL 3
REMARK VINA RESULT:      -5.5      1.445      2.609
REMARK  Name = 
REMARK  7 active torsions:
REMARK  status: ('A' for Active; 'I' for Inactive)
REMARK    1  A    between atoms: O_2  and  C_3
REMARK    2  A    between atoms: C_8  and  O_9
REMARK    3  A    between atoms: O_9  and  C_10
REMARK    4  A    between atoms: C_10  and  C_11
REMARK    5  A    between atoms: C_11  and  C_13
REMARK    6  A    between atoms: C_13  and  O_14
REMARK    7  A    between atoms: O_14  and  C_15
REMARK                            x       y       z     vdW  Elec       q    Type
REMARK                         _______ _______ _______ _____ _____    ______ ____
ROOT
ATOM      1  O   UNL     1     -12.038  13.540  69.029  0.00  0.00    -0.470 OA
ENDROOT
BRANCH   1   3
ATOM      2  C   UNL     1     -12.265  15.346  70.484  0.00  0.00    +0.172 A 
ATOM      3  C   UNL     1     -12.232  13.986  70.340  0.00  0.00    +0.172 A 
ATOM      4  C   UNL     1     -12.983  13.255  71.254  0.00  0.00    +0.040 A 
ATOM      5  C   UNL     1     -13.322  13.839  72.469  0.00  0.00    +0.003 A 
ATOM      6  C   UNL     1     -12.930  15.125  72.769  0.00  0.00    +0.003 A 
ATOM      7  C   UNL     1     -12.480  15.903  71.738  0.00  0.00    +0.040 A 
BRANCH   2   9
ATOM      8  C   UNL     1     -10.667  16.757  69.244  0.00  0.00    +0.253 C 
ATOM      9  O   UNL     1     -11.978  16.248  69.463  0.00  0.00    -0.468 OA
ENDBRANCH   2   9
ENDBRANCH   1   3
BRANCH   1  10
ATOM     10  C   UNL     1     -10.769  13.045  68.652  0.00  0.00    +0.242 C 
BRANCH  10  11
ATOM     11  C   UNL     1     -10.961  12.608  67.055  0.00  0.00    +0.239 C 
ATOM     12  O   UNL     1     -12.102  11.647  67.416  0.00  0.00    -0.215 OA
BRANCH  11  13
ATOM     13  C   UNL     1     -11.977  13.894  66.785  0.00  0.00    +0.247 C 
BRANCH  13  14
ATOM     14  O   UNL     1     -12.856  13.509  65.761  0.00  0.00    -0.430 OA
BRANCH  14  15
ATOM     15  C   UNL     1     -12.444  13.884  64.478  0.00  0.00    +0.441 C 
ATOM     16  O   UNL     1     -12.411  13.007  63.567  0.00  0.00    -0.223 OA
ATOM     17  N   UNL     1     -12.481  15.230  64.000  0.00  0.00    -0.048 NA
ENDBRANCH  14  15
ENDBRANCH  13  14
ENDBRANCH  11  13
ENDBRANCH  10  11
ENDBRANCH   1  10
TORSDOF 7
ENDMDL
MODEL 4
REMARK VINA RESULT:      -5.5      1.613      1.716
REMARK  Name = 
REMARK  7 active torsions:
REMARK  status: ('A' for Active; 'I' for Inactive)
REMARK    1  A    between atoms: O_2  and  C_3
REMARK    2  A    between atoms: C_8  and  O_9
REMARK    3  A    between atoms: O_9  and  C_10
REMARK    4  A    between atoms: C_10  and  C_11
REMARK    5  A    between atoms: C_11  and  C_13
REMARK    6  A    between atoms: C_13  and  O_14
REMARK    7  A    between atoms: O_14  and  C_15
REMARK                            x       y       z     vdW  Elec       q    Type
REMARK                         _______ _______ _______ _____ _____    ______ ____
ROOT
ATOM      1  O   UNL     1     -11.421  14.068  69.337  0.00  0.00    -0.470 OA
ENDROOT
BRANCH   1   3
ATOM      2  C   UNL     1     -12.616  13.456  71.242  0.00  0.00    +0.172 A 
ATOM      3  C   UNL     1     -12.096  14.475  70.493  0.00  0.00    +0.172 A 
ATOM      4  C   UNL     1     -11.721  15.618  71.190  0.00  0.00    +0.040 A 
ATOM      5  C   UNL     1     -12.281  15.860  72.439  0.00  0.00    +0.003 A 
ATOM      6  C   UNL     1     -13.189  14.983  72.988  0.00  0.00    +0.003 A 
ATOM      7  C   UNL     1     -13.284  13.740  72.426  0.00  0.00    +0.040 A 
BRANCH   2   9
ATOM      8  C   UNL     1     -13.068  11.076  71.706  0.00  0.00    +0.253 C 
ATOM      9  O   UNL     1     -12.632  12.121  70.845  0.00  0.00    -0.468 OA
ENDBRANCH   2   9
ENDBRANCH   1   3
BRANCH   1  10
ATOM     10  C   UNL     1     -11.912  14.472  68.076  0.00  0.00    +0.242 C 
BRANCH  10  11
ATOM     11  C   UNL     1     -11.273  13.356  67.015  0.00  0.00    +0.239 C 
ATOM     12  O   UNL     1     -12.049  12.216  67.687  0.00  0.00    -0.215 OA
BRANCH  11  13
ATOM     13  C   UNL     1     -12.470  13.669  65.906  0.00  0.00    +0.247 C 
BRANCH  13  14
ATOM     14  O   UNL     1     -12.615  12.509  65.127  0.00  0.00    -0.430 OA
BRANCH  14  15
ATOM     15  C   UNL     1     -12.136  12.631  63.819  0.00  0.00    +0.441 C 
ATOM     16  O   UNL     1     -12.648  13.506  63.061  0.00  0.00    -0.223 OA
ATOM     17  N   UNL     1     -10.848  12.172  63.405  0.00  0.00    -0.048 NA
ENDBRANCH  14  15
ENDBRANCH  13  14
ENDBRANCH  11  13
ENDBRANCH  10  11
ENDBRANCH   1  10
TORSDOF 7
ENDMDL
MODEL 5
REMARK VINA RESULT:      -5.5      2.058      2.443
REMARK  Name = 
REMARK  7 active torsions:
REMARK  status: ('A' for Active; 'I' for Inactive)
REMARK    1  A    between atoms: O_2  and  C_3
REMARK    2  A    between atoms: C_8  and  O_9
REMARK    3  A    between atoms: O_9  and  C_10
REMARK    4  A    between atoms: C_10  and  C_11
REMARK    5  A    between atoms: C_11  and  C_13
REMARK    6  A    between atoms: C_13  and  O_14
REMARK    7  A    between atoms: O_14  and  C_15
REMARK                            x       y       z     vdW  Elec       q    Type
REMARK                         _______ _______ _______ _____ _____    ______ ____
ROOT
ATOM      1  O   UNL     1     -10.655  14.987  69.832  0.00  0.00    -0.470 OA
ENDROOT
BRANCH   1   3
ATOM      2  C   UNL     1     -12.344  13.825  70.940  0.00  0.00    +0.172 A 
ATOM      3  C   UNL     1     -11.741  15.032  70.712  0.00  0.00    +0.172 A 
ATOM      4  C   UNL     1     -11.796  15.951  71.754  0.00  0.00    +0.040 A 
ATOM      5  C   UNL     1     -12.786  15.816  72.720  0.00  0.00    +0.003 A 
ATOM      6  C   UNL     1     -13.698  14.786  72.659  0.00  0.00    +0.003 A 
ATOM      7  C   UNL     1     -13.417  13.744  71.819  0.00  0.00    +0.040 A 
BRANCH   2   9
ATOM      8  C   UNL     1     -12.387  11.366  70.750  0.00  0.00    +0.253 C 
ATOM      9  O   UNL     1     -12.035  12.653  70.255  0.00  0.00    -0.468 OA
ENDBRANCH   2   9
ENDBRANCH   1   3
BRANCH   1  10
ATOM     10  C   UNL     1     -10.133  16.196  69.321  0.00  0.00    +0.242 C 
BRANCH  10  11
ATOM     11  C   UNL     1     -10.946  16.413  67.882  0.00  0.00    +0.239 C 
ATOM     12  O   UNL     1     -10.891  17.939  68.038  0.00  0.00    -0.215 OA
BRANCH  11  13
ATOM     13  C   UNL     1      -9.527  16.335  67.024  0.00  0.00    +0.247 C 
BRANCH  13  14
ATOM     14  O   UNL     1      -9.799  16.838  65.742  0.00  0.00    -0.430 OA
BRANCH  14  15
ATOM     15  C   UNL     1     -10.724  16.085  65.013  0.00  0.00    +0.441 C 
ATOM     16  O   UNL     1     -11.445  16.669  64.153  0.00  0.00    -0.223 OA
ATOM     17  N   UNL     1     -10.626  14.670  64.837  0.00  0.00    -0.048 NA
ENDBRANCH  14  15
ENDBRANCH  13  14
ENDBRANCH  11  13
ENDBRANCH  10  11
ENDBRANCH   1  10
TORSDOF 7
ENDMDL
MODEL 6
REMARK VINA RESULT:      -5.3      3.074      6.391
REMARK  Name = 
REMARK  7 active torsions:
REMARK  status: ('A' for Active; 'I' for Inactive)
REMARK    1  A    between atoms: O_2  and  C_3
REMARK    2  A    between atoms: C_8  and  O_9
REMARK    3  A    between atoms: O_9  and  C_10
REMARK    4  A    between atoms: C_10  and  C_11
REMARK    5  A    between atoms: C_11  and  C_13
REMARK    6  A    between atoms: C_13  and  O_14
REMARK    7  A    between atoms: O_14  and  C_15
REMARK                            x       y       z     vdW  Elec       q    Type
REMARK                         _______ _______ _______ _____ _____    ______ ____
ROOT
ATOM      1  O   UNL     1     -10.721  14.065  68.269  0.00  0.00    -0.470 OA
ENDROOT
BRANCH   1   3
ATOM      2  C   UNL     1     -11.040  14.869  66.104  0.00  0.00    +0.172 A 
ATOM      3  C   UNL     1     -11.363  13.919  67.034  0.00  0.00    +0.172 A 
ATOM      4  C   UNL     1     -11.709  12.667  66.537  0.00  0.00    +0.040 A 
ATOM      5  C   UNL     1     -12.148  12.562  65.222  0.00  0.00    +0.003 A 
ATOM      6  C   UNL     1     -12.236  13.674  64.415  0.00  0.00    +0.003 A 
ATOM      7  C   UNL     1     -11.596  14.808  64.833  0.00  0.00    +0.040 A 
BRANCH   2   9
ATOM      8  C   UNL     1      -8.859  16.022  66.136  0.00  0.00    +0.253 C 
ATOM      9  O   UNL     1     -10.263  15.993  66.371  0.00  0.00    -0.468 OA
ENDBRANCH   2   9
ENDBRANCH   1   3
BRANCH   1  10
ATOM     10  C   UNL     1     -11.494  14.051  69.451  0.00  0.00    +0.242 C 
BRANCH  10  11
ATOM     11  C   UNL     1     -11.054  15.452  70.241  0.00  0.00    +0.239 C 
ATOM     12  O   UNL     1     -12.136  16.252  69.503  0.00  0.00    -0.215 OA
BRANCH  11  13
ATOM     13  C   UNL     1     -12.041  15.084  71.525  0.00  0.00    +0.247 C 
BRANCH  13  14
ATOM     14  O   UNL     1     -13.230  15.808  71.344  0.00  0.00    -0.430 OA
BRANCH  14  15
ATOM     15  C   UNL     1     -14.380  15.145  71.783  0.00  0.00    +0.441 C 
ATOM     16  O   UNL     1     -15.505  15.518  71.342  0.00  0.00    -0.223 OA
ATOM     17  N   UNL     1     -14.369  13.825  72.332  0.00  0.00    -0.048 NA
ENDBRANCH  14  15
ENDBRANCH  13  14
ENDBRANCH  11  13
ENDBRANCH  10  11
ENDBRANCH   1  10
TORSDOF 7
ENDMDL
MODEL 7
REMARK VINA RESULT:      -5.3      3.104      5.877
REMARK  Name = 
REMARK  7 active torsions:
REMARK  status: ('A' for Active; 'I' for Inactive)
REMARK    1  A    between atoms: O_2  and  C_3
REMARK    2  A    between atoms: C_8  and  O_9
REMARK    3  A    between atoms: O_9  and  C_10
REMARK    4  A    between atoms: C_10  and  C_11
REMARK    5  A    between atoms: C_11  and  C_13
REMARK    6  A    between atoms: C_13  and  O_14
REMARK    7  A    between atoms: O_14  and  C_15
REMARK                            x       y       z     vdW  Elec       q    Type
REMARK                         _______ _______ _______ _____ _____    ______ ____
ROOT
ATOM      1  O   UNL     1     -10.521  13.747  68.156  0.00  0.00    -0.470 OA
ENDROOT
BRANCH   1   3
ATOM      2  C   UNL     1     -11.657  12.560  66.503  0.00  0.00    +0.172 A 
ATOM      3  C   UNL     1     -10.898  13.656  66.812  0.00  0.00    +0.172 A 
ATOM      4  C   UNL     1     -11.117  14.791  66.039  0.00  0.00    +0.040 A 
ATOM      5  C   UNL     1     -11.693  14.648  64.781  0.00  0.00    +0.003 A 
ATOM      6  C   UNL     1     -12.050  13.408  64.304  0.00  0.00    +0.003 A 
ATOM      7  C   UNL     1     -12.112  12.379  65.204  0.00  0.00    +0.040 A 
BRANCH   2   9
ATOM      8  C   UNL     1     -11.067  10.387  67.509  0.00  0.00    +0.253 C 
ATOM      9  O   UNL     1     -11.922  11.517  67.387  0.00  0.00    -0.468 OA
ENDBRANCH   2   9
ENDBRANCH   1   3
BRANCH   1  10
ATOM     10  C   UNL     1     -11.457  14.220  69.102  0.00  0.00    +0.242 C 
BRANCH  10  11
ATOM     11  C   UNL     1     -10.782  15.634  69.671  0.00  0.00    +0.239 C 
ATOM     12  O   UNL     1     -11.876  16.472  68.998  0.00  0.00    -0.215 OA
BRANCH  11  13
ATOM     13  C   UNL     1     -11.609  15.497  71.105  0.00  0.00    +0.247 C 
BRANCH  13  14
ATOM     14  O   UNL     1     -12.877  14.980  70.794  0.00  0.00    -0.430 OA
BRANCH  14  15
ATOM     15  C   UNL     1     -13.740  14.878  71.889  0.00  0.00    +0.441 C 
ATOM     16  O   UNL     1     -14.505  15.850  72.155  0.00  0.00    -0.223 OA
ATOM     17  N   UNL     1     -14.148  13.633  72.459  0.00  0.00    -0.048 NA
ENDBRANCH  14  15
ENDBRANCH  13  14
ENDBRANCH  11  13
ENDBRANCH  10  11
ENDBRANCH   1  10
TORSDOF 7
ENDMDL
MODEL 8
REMARK VINA RESULT:      -5.2      1.716      2.628
REMARK  Name = 
REMARK  7 active torsions:
REMARK  status: ('A' for Active; 'I' for Inactive)
REMARK    1  A    between atoms: O_2  and  C_3
REMARK    2  A    between atoms: C_8  and  O_9
REMARK    3  A    between atoms: O_9  and  C_10
REMARK    4  A    between atoms: C_10  and  C_11
REMARK    5  A    between atoms: C_11  and  C_13
REMARK    6  A    between atoms: C_13  and  O_14
REMARK    7  A    between atoms: O_14  and  C_15
REMARK                            x       y       z     vdW  Elec       q    Type
REMARK                         _______ _______ _______ _____ _____    ______ ____
ROOT
ATOM      1  O   UNL     1     -11.616  14.280  69.128  0.00  0.00    -0.470 OA
ENDROOT
BRANCH   1   3
ATOM      2  C   UNL     1     -12.898  13.684  70.981  0.00  0.00    +0.172 A 
ATOM      3  C   UNL     1     -11.948  13.304  70.073  0.00  0.00    +0.172 A 
ATOM      4  C   UNL     1     -11.901  11.948  69.766  0.00  0.00    +0.040 A 
ATOM      5  C   UNL     1     -12.440  11.035  70.665  0.00  0.00    +0.003 A 
ATOM      6  C   UNL     1     -13.020  11.457  71.840  0.00  0.00    +0.003 A 
ATOM      7  C   UNL     1     -13.326  12.786  71.951  0.00  0.00    +0.040 A 
BRANCH   2   9
ATOM      8  C   UNL     1     -14.564  15.278  71.858  0.00  0.00    +0.253 C 
ATOM      9  O   UNL     1     -13.405  14.976  71.088  0.00  0.00    -0.468 OA
ENDBRANCH   2   9
ENDBRANCH   1   3
BRANCH   1  10
ATOM     10  C   UNL     1     -11.154  13.876  67.856  0.00  0.00    +0.242 C 
BRANCH  10  11
ATOM     11  C   UNL     1      -9.668  14.619  67.709  0.00  0.00    +0.239 C 
ATOM     12  O   UNL     1      -9.273  13.685  66.558  0.00  0.00    -0.215 OA
BRANCH  11  13
ATOM     13  C   UNL     1     -10.304  15.777  66.702  0.00  0.00    +0.247 C 
BRANCH  13  14
ATOM     14  O   UNL     1     -10.393  15.200  65.425  0.00  0.00    -0.430 OA
BRANCH  14  15
ATOM     15  C   UNL     1     -11.472  15.656  64.662  0.00  0.00    +0.441 C 
ATOM     16  O   UNL     1     -11.378  16.777  64.083  0.00  0.00    -0.223 OA
ATOM     17  N   UNL     1     -12.477  14.796  64.122  0.00  0.00    -0.048 NA
ENDBRANCH  14  15
ENDBRANCH  13  14
ENDBRANCH  11  13
ENDBRANCH  10  11
ENDBRANCH   1  10
TORSDOF 7
ENDMDL
MODEL 9
REMARK VINA RESULT:      -5.1      2.455      3.972
REMARK  Name = 
REMARK  7 active torsions:
REMARK  status: ('A' for Active; 'I' for Inactive)
REMARK    1  A    between atoms: O_2  and  C_3
REMARK    2  A    between atoms: C_8  and  O_9
REMARK    3  A    between atoms: O_9  and  C_10
REMARK    4  A    between atoms: C_10  and  C_11
REMARK    5  A    between atoms: C_11  and  C_13
REMARK    6  A    between atoms: C_13  and  O_14
REMARK    7  A    between atoms: O_14  and  C_15
REMARK                            x       y       z     vdW  Elec       q    Type
REMARK                         _______ _______ _______ _____ _____    ______ ____
ROOT
ATOM      1  O   UNL     1     -12.118  11.578  67.467  0.00  0.00    -0.470 OA
ENDROOT
BRANCH   1   3
ATOM      2  C   UNL     1     -11.272  10.639  69.425  0.00  0.00    +0.172 A 
ATOM      3  C   UNL     1     -11.179  10.730  68.063  0.00  0.00    +0.172 A 
ATOM      4  C   UNL     1     -10.694   9.605  67.406  0.00  0.00    +0.040 A 
ATOM      5  C   UNL     1      -9.931   8.685  68.117  0.00  0.00    +0.003 A 
ATOM      6  C   UNL     1      -9.661   8.873  69.453  0.00  0.00    +0.003 A 
ATOM      7  C   UNL     1     -10.408   9.804  70.122  0.00  0.00    +0.040 A 
BRANCH   2   9
ATOM      8  C   UNL     1     -12.863  10.895  71.292  0.00  0.00    +0.253 C 
ATOM      9  O   UNL     1     -12.113  11.427  70.207  0.00  0.00    -0.468 OA
ENDBRANCH   2   9
ENDBRANCH   1   3
BRANCH   1  10
ATOM     10  C   UNL     1     -11.677  12.782  66.874  0.00  0.00    +0.242 C 
BRANCH  10  11
ATOM     11  C   UNL     1     -11.904  12.537  65.241  0.00  0.00    +0.239 C 
ATOM     12  O   UNL     1     -13.109  13.488  65.227  0.00  0.00    -0.215 OA
BRANCH  11  13
ATOM     13  C   UNL     1     -10.812  13.732  64.870  0.00  0.00    +0.247 C 
BRANCH  13  14
ATOM     14  O   UNL     1     -11.002  14.761  65.807  0.00  0.00    -0.430 OA
BRANCH  14  15
ATOM     15  C   UNL     1     -10.623  16.028  65.354  0.00  0.00    +0.441 C 
ATOM     16  O   UNL     1      -9.443  16.427  65.578  0.00  0.00    -0.223 OA
ATOM     17  N   UNL     1     -11.290  16.721  64.298  0.00  0.00    -0.048 NA
ENDBRANCH  14  15
ENDBRANCH  13  14
ENDBRANCH  11  13
ENDBRANCH  10  11
ENDBRANCH   1  10
TORSDOF 7
ENDMDL
