MODEL 1
REMARK VINA RESULT:      -7.4      0.000      0.000
REMARK  Name = 
REMARK  4 active torsions:
REMARK  status: ('A' for Active; 'I' for Inactive)
REMARK    1  A    between atoms: O_2  and  N_3
REMARK    2  A    between atoms: C_16  and  C_17
REMARK    3  A    between atoms: N_21  and  C_22
REMARK    4  A    between atoms: C_26  and  C_27
REMARK                            x       y       z     vdW  Elec       q    Type
REMARK                         _______ _______ _______ _____ _____    ______ ____
ROOT
ATOM      1  N   UNL     1      -7.500  17.827  66.013  0.00  0.00    -0.090 NA
ATOM      2  C   UNL     1      -8.547  17.948  66.759  0.00  0.00    +0.097 C 
ATOM      3  C   UNL     1      -9.907  18.273  65.969  0.00  0.00    +0.080 C 
ATOM      4  C   UNL     1     -10.583  16.830  66.336  0.00  0.00    +0.100 C 
ATOM      5  N   UNL     1     -10.282  16.746  67.746  0.00  0.00    -0.286 N 
ATOM      6  C   UNL     1     -10.551  15.508  68.411  0.00  0.00    +0.161 A 
ATOM      7  C   UNL     1      -9.821  14.408  67.968  0.00  0.00    +0.172 A 
ATOM      8  F   UNL     1      -8.466  14.575  67.924  0.00  0.00    -0.201 F 
ATOM      9  C   UNL     1     -10.390  13.142  68.074  0.00  0.00    +0.039 A 
ATOM     10  C   UNL     1     -11.564  13.059  68.822  0.00  0.00    +0.076 A 
ATOM     11  C   UNL     1     -12.088  11.820  69.175  0.00  0.00    +0.206 A 
ATOM     12  C   UNL     1     -12.368  11.468  70.492  0.00  0.00    +0.136 A 
ATOM     13  C   UNL     1     -12.568  12.541  71.320  0.00  0.00    +0.087 A 
ATOM     14  N   UNL     1     -12.422  13.824  70.899  0.00  0.00    -0.313 N 
ATOM     15  O   UNL     1     -12.066  10.946  68.270  0.00  0.00    -0.286 OA
ATOM     16  C   UNL     1     -11.915  14.102  69.675  0.00  0.00    +0.148 A 
ATOM     17  N   UNL     1     -11.569  15.344  69.282  0.00  0.00    -0.211 NA
ATOM     18  C   UNL     1      -8.969  17.341  68.004  0.00  0.00    +0.137 C 
ENDROOT
BRANCH  14  19
ATOM     19  C   UNL     1     -12.411  14.844  71.912  0.00  0.00    +0.087 C 
ATOM     20  C   UNL     1     -13.638  15.546  72.341  0.00  0.00    +0.025 C 
ATOM     21  C   UNL     1     -12.897  14.595  73.285  0.00  0.00    +0.025 C 
ENDBRANCH  14  19
BRANCH  12  22
ATOM     22  C   UNL     1     -12.113  10.095  70.950  0.00  0.00    +0.392 C 
ATOM     23  O   UNL     1     -10.764   9.740  71.078  0.00  0.00    -0.240 OA
ATOM     24  O   UNL     1     -12.810   9.732  71.951  0.00  0.00    -0.240 OA
ENDBRANCH  12  22
BRANCH   1  26
ATOM     25  C   UNL     1      -5.142  17.463  66.329  0.00  0.00    +0.288 C 
ATOM     26  O   UNL     1      -6.472  17.108  66.532  0.00  0.00    -0.374 OA
ENDBRANCH   1  26
BRANCH   3  27
ATOM     27  C   UNL     1     -10.585  19.025  67.259  0.00  0.00    +0.117 C 
ATOM     28  N   UNL     1     -10.093  20.376  66.983  0.00  0.00    -0.131 NA
ENDBRANCH   3  27
TORSDOF 4
ENDMDL
MODEL 2
REMARK VINA RESULT:      -7.3      2.877      4.423
REMARK  Name = 
REMARK  4 active torsions:
REMARK  status: ('A' for Active; 'I' for Inactive)
REMARK    1  A    between atoms: O_2  and  N_3
REMARK    2  A    between atoms: C_16  and  C_17
REMARK    3  A    between atoms: N_21  and  C_22
REMARK    4  A    between atoms: C_26  and  C_27
REMARK                            x       y       z     vdW  Elec       q    Type
REMARK                         _______ _______ _______ _____ _____    ______ ____
ROOT
ATOM      1  N   UNL     1      -3.780  18.844  68.263  0.00  0.00    -0.090 NA
ATOM      2  C   UNL     1      -4.893  18.842  68.917  0.00  0.00    +0.097 C 
ATOM      3  C   UNL     1      -5.734  20.208  68.825  0.00  0.00    +0.080 C 
ATOM      4  C   UNL     1      -6.954  19.518  67.983  0.00  0.00    +0.100 C 
ATOM      5  N   UNL     1      -7.155  18.310  68.747  0.00  0.00    -0.286 N 
ATOM      6  C   UNL     1      -8.036  17.319  68.206  0.00  0.00    +0.161 A 
ATOM      7  C   UNL     1      -7.642  16.748  66.999  0.00  0.00    +0.172 A 
ATOM      8  F   UNL     1      -6.373  16.243  66.970  0.00  0.00    -0.201 F 
ATOM      9  C   UNL     1      -8.624  16.289  66.126  0.00  0.00    +0.039 A 
ATOM     10  C   UNL     1      -9.921  16.241  66.634  0.00  0.00    +0.076 A 
ATOM     11  C   UNL     1     -10.930  15.595  65.927  0.00  0.00    +0.206 A 
ATOM     12  C   UNL     1     -11.710  14.584  66.483  0.00  0.00    +0.136 A 
ATOM     13  C   UNL     1     -11.765  14.617  67.851  0.00  0.00    +0.087 A 
ATOM     14  N   UNL     1     -11.053  15.509  68.589  0.00  0.00    -0.313 N 
ATOM     15  O   UNL     1     -10.938  15.800  64.686  0.00  0.00    -0.286 OA
ATOM     16  C   UNL     1     -10.127  16.310  68.008  0.00  0.00    +0.148 A 
ATOM     17  N   UNL     1      -9.263  17.069  68.711  0.00  0.00    -0.211 NA
ATOM     18  C   UNL     1      -5.866  17.820  69.242  0.00  0.00    +0.137 C 
ENDROOT
BRANCH  14  19
ATOM     19  C   UNL     1     -10.999  15.284  70.007  0.00  0.00    +0.087 C 
ATOM     20  C   UNL     1     -11.930  15.937  70.948  0.00  0.00    +0.025 C 
ATOM     21  C   UNL     1     -11.977  14.427  70.706  0.00  0.00    +0.025 C 
ENDBRANCH  14  19
BRANCH  12  22
ATOM     22  C   UNL     1     -12.112  13.436  65.658  0.00  0.00    +0.392 C 
ATOM     23  O   UNL     1     -12.062  12.188  66.292  0.00  0.00    -0.240 OA
ATOM     24  O   UNL     1     -13.187  13.605  65.000  0.00  0.00    -0.240 OA
ENDBRANCH  12  22
BRANCH   1  26
ATOM     25  C   UNL     1      -3.148  17.240  66.584  0.00  0.00    +0.288 C 
ATOM     26  O   UNL     1      -3.288  17.629  67.913  0.00  0.00    -0.374 OA
ENDBRANCH   1  26
BRANCH   3  27
ATOM     27  C   UNL     1      -6.468  19.961  70.271  0.00  0.00    +0.117 C 
ATOM     28  N   UNL     1      -5.597  20.812  71.084  0.00  0.00    -0.131 NA
ENDBRANCH   3  27
TORSDOF 4
ENDMDL
MODEL 3
REMARK VINA RESULT:      -6.6      3.110      4.637
REMARK  Name = 
REMARK  4 active torsions:
REMARK  status: ('A' for Active; 'I' for Inactive)
REMARK    1  A    between atoms: O_2  and  N_3
REMARK    2  A    between atoms: C_16  and  C_17
REMARK    3  A    between atoms: N_21  and  C_22
REMARK    4  A    between atoms: C_26  and  C_27
REMARK                            x       y       z     vdW  Elec       q    Type
REMARK                         _______ _______ _______ _____ _____    ______ ____
ROOT
ATOM      1  N   UNL     1      -9.822  15.138  65.296  0.00  0.00    -0.090 NA
ATOM      2  C   UNL     1     -10.752  14.324  65.667  0.00  0.00    +0.097 C 
ATOM      3  C   UNL     1     -11.124  13.187  64.595  0.00  0.00    +0.080 C 
ATOM      4  C   UNL     1     -10.556  11.974  65.533  0.00  0.00    +0.100 C 
ATOM      5  N   UNL     1     -11.139  12.328  66.806  0.00  0.00    -0.286 N 
ATOM      6  C   UNL     1     -10.712  11.595  67.959  0.00  0.00    +0.161 A 
ATOM      7  C   UNL     1      -9.366  11.718  68.296  0.00  0.00    +0.172 A 
ATOM      8  F   UNL     1      -8.900  12.996  68.414  0.00  0.00    -0.201 F 
ATOM      9  C   UNL     1      -8.740  10.657  68.943  0.00  0.00    +0.039 A 
ATOM     10  C   UNL     1      -9.577   9.639  69.399  0.00  0.00    +0.076 A 
ATOM     11  C   UNL     1      -9.085   8.650  70.247  0.00  0.00    +0.206 A 
ATOM     12  C   UNL     1      -9.664   8.360  71.478  0.00  0.00    +0.136 A 
ATOM     13  C   UNL     1     -10.979   8.730  71.573  0.00  0.00    +0.087 A 
ATOM     14  N   UNL     1     -11.623   9.395  70.578  0.00  0.00    -0.313 N 
ATOM     15  O   UNL     1      -7.947   8.203  69.953  0.00  0.00    -0.286 OA
ATOM     16  C   UNL     1     -10.946   9.864  69.503  0.00  0.00    +0.148 A 
ATOM     17  N   UNL     1     -11.492  10.690  68.588  0.00  0.00    -0.211 NA
ATOM     18  C   UNL     1     -11.166  13.786  66.947  0.00  0.00    +0.137 C 
ENDROOT
BRANCH  14  19
ATOM     19  C   UNL     1     -12.913   9.946  70.892  0.00  0.00    +0.087 C 
ATOM     20  C   UNL     1     -13.583   9.705  72.185  0.00  0.00    +0.025 C 
ATOM     21  C   UNL     1     -13.077  11.098  71.801  0.00  0.00    +0.025 C 
ENDBRANCH  14  19
BRANCH  12  22
ATOM     22  C   UNL     1      -8.809   8.015  72.623  0.00  0.00    +0.392 C 
ATOM     23  O   UNL     1      -7.744   8.892  72.869  0.00  0.00    -0.240 OA
ATOM     24  O   UNL     1      -9.440   7.707  73.684  0.00  0.00    -0.240 OA
ENDBRANCH  12  22
BRANCH   1  26
ATOM     25  C   UNL     1      -9.397  17.112  66.605  0.00  0.00    +0.288 C 
ATOM     26  O   UNL     1      -9.154  15.780  66.289  0.00  0.00    -0.374 OA
ENDBRANCH   1  26
BRANCH   3  27
ATOM     27  C   UNL     1     -12.657  13.029  65.156  0.00  0.00    +0.117 C 
ATOM     28  N   UNL     1     -13.166  12.152  64.099  0.00  0.00    -0.131 NA
ENDBRANCH   3  27
TORSDOF 4
ENDMDL
MODEL 4
REMARK VINA RESULT:      -6.6      3.591      8.184
REMARK  Name = 
REMARK  4 active torsions:
REMARK  status: ('A' for Active; 'I' for Inactive)
REMARK    1  A    between atoms: O_2  and  N_3
REMARK    2  A    between atoms: C_16  and  C_17
REMARK    3  A    between atoms: N_21  and  C_22
REMARK    4  A    between atoms: C_26  and  C_27
REMARK                            x       y       z     vdW  Elec       q    Type
REMARK                         _______ _______ _______ _____ _____    ______ ____
ROOT
ATOM      1  N   UNL     1     -11.908   8.189  70.894  0.00  0.00    -0.090 NA
ATOM      2  C   UNL     1     -10.806   8.624  70.379  0.00  0.00    +0.097 C 
ATOM      3  C   UNL     1     -10.218   7.727  69.183  0.00  0.00    +0.080 C 
ATOM      4  C   UNL     1     -10.468   8.886  68.057  0.00  0.00    +0.100 C 
ATOM      5  N   UNL     1      -9.944  10.042  68.745  0.00  0.00    -0.286 N 
ATOM      6  C   UNL     1     -10.159  11.325  68.147  0.00  0.00    +0.161 A 
ATOM      7  C   UNL     1     -11.486  11.728  68.029  0.00  0.00    +0.172 A 
ATOM      8  F   UNL     1     -12.227  11.668  69.175  0.00  0.00    -0.201 F 
ATOM      9  C   UNL     1     -11.836  12.579  66.985  0.00  0.00    +0.039 A 
ATOM     10  C   UNL     1     -10.777  13.137  66.270  0.00  0.00    +0.076 A 
ATOM     11  C   UNL     1     -11.006  14.165  65.360  0.00  0.00    +0.206 A 
ATOM     12  C   UNL     1     -10.340  15.385  65.421  0.00  0.00    +0.136 A 
ATOM     13  C   UNL     1      -9.141  15.329  66.081  0.00  0.00    +0.087 A 
ATOM     14  N   UNL     1      -8.695  14.198  66.687  0.00  0.00    -0.313 N 
ATOM     15  O   UNL     1     -12.021  14.025  64.631  0.00  0.00    -0.286 OA
ATOM     16  C   UNL     1      -9.492  13.110  66.803  0.00  0.00    +0.148 A 
ATOM     17  N   UNL     1      -9.175  12.038  67.558  0.00  0.00    -0.211 NA
ATOM     18  C   UNL     1     -10.244   9.942  70.175  0.00  0.00    +0.137 C 
ENDROOT
BRANCH  14  19
ATOM     19  C   UNL     1      -7.555  14.330  67.553  0.00  0.00    +0.087 C 
ATOM     20  C   UNL     1      -6.893  15.627  67.796  0.00  0.00    +0.025 C 
ATOM     21  C   UNL     1      -7.659  14.907  68.909  0.00  0.00    +0.025 C 
ENDBRANCH  14  19
BRANCH  12  22
ATOM     22  C   UNL     1     -11.060  16.626  65.101  0.00  0.00    +0.392 C 
ATOM     23  O   UNL     1     -10.416  17.813  65.474  0.00  0.00    -0.240 OA
ATOM     24  O   UNL     1     -11.532  16.677  63.921  0.00  0.00    -0.240 OA
ENDBRANCH  12  22
BRANCH   1  26
ATOM     25  C   UNL     1     -13.962   8.820  71.978  0.00  0.00    +0.288 C 
ATOM     26  O   UNL     1     -12.674   9.107  71.535  0.00  0.00    -0.374 OA
ENDBRANCH   1  26
BRANCH   3  27
ATOM     27  C   UNL     1      -8.674   8.201  69.464  0.00  0.00    +0.117 C 
ATOM     28  N   UNL     1      -8.036   6.888  69.338  0.00  0.00    -0.131 NA
ENDBRANCH   3  27
TORSDOF 4
ENDMDL
MODEL 5
REMARK VINA RESULT:      -6.5      4.156      8.013
REMARK  Name = 
REMARK  4 active torsions:
REMARK  status: ('A' for Active; 'I' for Inactive)
REMARK    1  A    between atoms: O_2  and  N_3
REMARK    2  A    between atoms: C_16  and  C_17
REMARK    3  A    between atoms: N_21  and  C_22
REMARK    4  A    between atoms: C_26  and  C_27
REMARK                            x       y       z     vdW  Elec       q    Type
REMARK                         _______ _______ _______ _____ _____    ______ ____
ROOT
ATOM      1  N   UNL     1      -7.719   8.121  70.559  0.00  0.00    -0.090 NA
ATOM      2  C   UNL     1      -8.779   8.178  69.824  0.00  0.00    +0.097 C 
ATOM      3  C   UNL     1     -10.167   8.147  70.633  0.00  0.00    +0.080 C 
ATOM      4  C   UNL     1     -10.559   9.679  70.218  0.00  0.00    +0.100 C 
ATOM      5  N   UNL     1     -10.265   9.656  68.805  0.00  0.00    -0.286 N 
ATOM      6  C   UNL     1     -10.300  10.900  68.097  0.00  0.00    +0.161 A 
ATOM      7  C   UNL     1      -9.367  11.854  68.496  0.00  0.00    +0.172 A 
ATOM      8  F   UNL     1      -8.069  11.431  68.538  0.00  0.00    -0.201 F 
ATOM      9  C   UNL     1      -9.685  13.201  68.348  0.00  0.00    +0.039 A 
ATOM     10  C   UNL     1     -10.830  13.481  67.604  0.00  0.00    +0.076 A 
ATOM     11  C   UNL     1     -11.112  14.786  67.210  0.00  0.00    +0.206 A 
ATOM     12  C   UNL     1     -11.335  15.139  65.883  0.00  0.00    +0.136 A 
ATOM     13  C   UNL     1     -11.747  14.097  65.094  0.00  0.00    +0.087 A 
ATOM     14  N   UNL     1     -11.844  12.824  65.560  0.00  0.00    -0.313 N 
ATOM     15  O   UNL     1     -10.911  15.669  68.083  0.00  0.00    -0.286 OA
ATOM     16  C   UNL     1     -11.384  12.497  66.792  0.00  0.00    +0.148 A 
ATOM     17  N   UNL     1     -11.279  11.226  67.227  0.00  0.00    -0.211 NA
ATOM     18  C   UNL     1      -9.093   8.811  68.560  0.00  0.00    +0.137 C 
ENDROOT
BRANCH  14  19
ATOM     19  C   UNL     1     -12.042  11.788  64.585  0.00  0.00    +0.087 C 
ATOM     20  C   UNL     1     -12.430  12.077  63.190  0.00  0.00    +0.025 C 
ATOM     21  C   UNL     1     -11.051  11.503  63.527  0.00  0.00    +0.025 C 
ENDBRANCH  14  19
BRANCH  12  22
ATOM     22  C   UNL     1     -10.828  16.421  65.374  0.00  0.00    +0.392 C 
ATOM     23  O   UNL     1      -9.438  16.586  65.425  0.00  0.00    -0.240 OA
ATOM     24  O   UNL     1     -11.321  16.782  64.257  0.00  0.00    -0.240 OA
ENDBRANCH  12  22
BRANCH   1  26
ATOM     25  C   UNL     1      -5.937   9.737  70.513  0.00  0.00    +0.288 C 
ATOM     26  O   UNL     1      -6.580   8.611  70.009  0.00  0.00    -0.374 OA
ENDBRANCH   1  26
BRANCH   3  27
ATOM     27  C   UNL     1     -10.992   7.496  69.375  0.00  0.00    +0.117 C 
ATOM     28  N   UNL     1     -11.323   6.212  69.997  0.00  0.00    -0.131 NA
ENDBRANCH   3  27
TORSDOF 4
ENDMDL
MODEL 6
REMARK VINA RESULT:      -6.5      4.041      6.135
REMARK  Name = 
REMARK  4 active torsions:
REMARK  status: ('A' for Active; 'I' for Inactive)
REMARK    1  A    between atoms: O_2  and  N_3
REMARK    2  A    between atoms: C_16  and  C_17
REMARK    3  A    between atoms: N_21  and  C_22
REMARK    4  A    between atoms: C_26  and  C_27
REMARK                            x       y       z     vdW  Elec       q    Type
REMARK                         _______ _______ _______ _____ _____    ______ ____
ROOT
ATOM      1  N   UNL     1     -10.561  18.219  68.201  0.00  0.00    -0.090 NA
ATOM      2  C   UNL     1     -10.316  17.027  68.632  0.00  0.00    +0.097 C 
ATOM      3  C   UNL     1     -11.542  16.313  69.386  0.00  0.00    +0.080 C 
ATOM      4  C   UNL     1     -11.727  15.178  68.223  0.00  0.00    +0.100 C 
ATOM      5  N   UNL     1     -10.354  14.779  68.020  0.00  0.00    -0.286 N 
ATOM      6  C   UNL     1     -10.069  13.912  66.917  0.00  0.00    +0.161 A 
ATOM      7  C   UNL     1     -10.332  14.431  65.652  0.00  0.00    +0.172 A 
ATOM      8  F   UNL     1      -9.776  15.649  65.384  0.00  0.00    -0.201 F 
ATOM      9  C   UNL     1     -10.678  13.552  64.629  0.00  0.00    +0.039 A 
ATOM     10  C   UNL     1     -10.516  12.195  64.907  0.00  0.00    +0.076 A 
ATOM     11  C   UNL     1     -10.618  11.252  63.889  0.00  0.00    +0.206 A 
ATOM     12  C   UNL     1      -9.614  10.326  63.618  0.00  0.00    +0.136 A 
ATOM     13  C   UNL     1      -8.788  10.078  64.682  0.00  0.00    +0.087 A 
ATOM     14  N   UNL     1      -8.899  10.743  65.862  0.00  0.00    -0.313 N 
ATOM     15  O   UNL     1     -11.555  11.437  63.072  0.00  0.00    -0.286 OA
ATOM     16  C   UNL     1      -9.736  11.800  65.989  0.00  0.00    +0.148 A 
ATOM     17  N   UNL     1      -9.745  12.610  67.066  0.00  0.00    -0.211 NA
ATOM     18  C   UNL     1      -9.477  15.943  68.165  0.00  0.00    +0.137 C 
ENDROOT
BRANCH  14  19
ATOM     19  C   UNL     1      -7.828  10.577  66.805  0.00  0.00    +0.087 C 
ATOM     20  C   UNL     1      -6.611   9.802  66.493  0.00  0.00    +0.025 C 
ATOM     21  C   UNL     1      -6.556  11.318  66.691  0.00  0.00    +0.025 C 
ENDBRANCH  14  19
BRANCH  12  22
ATOM     22  C   UNL     1      -9.316   9.961  62.226  0.00  0.00    +0.392 C 
ATOM     23  O   UNL     1      -8.411  10.799  61.561  0.00  0.00    -0.240 OA
ATOM     24  O   UNL     1      -9.062   8.728  62.043  0.00  0.00    -0.240 OA
ENDBRANCH  12  22
BRANCH   1  26
ATOM     25  C   UNL     1     -10.291  19.407  66.126  0.00  0.00    +0.288 C 
ATOM     26  O   UNL     1      -9.780  18.663  67.185  0.00  0.00    -0.374 OA
ENDBRANCH   1  26
BRANCH   3  27
ATOM     27  C   UNL     1     -10.555  15.363  70.287  0.00  0.00    +0.117 C 
ATOM     28  N   UNL     1     -11.422  15.233  71.461  0.00  0.00    -0.131 NA
ENDBRANCH   3  27
TORSDOF 4
ENDMDL
MODEL 7
REMARK VINA RESULT:      -6.4      1.719      7.662
REMARK  Name = 
REMARK  4 active torsions:
REMARK  status: ('A' for Active; 'I' for Inactive)
REMARK    1  A    between atoms: O_2  and  N_3
REMARK    2  A    between atoms: C_16  and  C_17
REMARK    3  A    between atoms: N_21  and  C_22
REMARK    4  A    between atoms: C_26  and  C_27
REMARK                            x       y       z     vdW  Elec       q    Type
REMARK                         _______ _______ _______ _____ _____    ______ ____
ROOT
ATOM      1  N   UNL     1     -12.140  12.153  70.612  0.00  0.00    -0.090 NA
ATOM      2  C   UNL     1     -12.414  13.401  70.423  0.00  0.00    +0.097 C 
ATOM      3  C   UNL     1     -12.567  14.271  71.766  0.00  0.00    +0.080 C 
ATOM      4  C   UNL     1     -11.233  15.164  71.458  0.00  0.00    +0.100 C 
ATOM      5  N   UNL     1     -11.445  15.489  70.067  0.00  0.00    -0.286 N 
ATOM      6  C   UNL     1     -10.372  16.121  69.361  0.00  0.00    +0.161 A 
ATOM      7  C   UNL     1      -9.204  15.374  69.232  0.00  0.00    +0.172 A 
ATOM      8  F   UNL     1      -9.359  14.117  68.724  0.00  0.00    -0.201 F 
ATOM      9  C   UNL     1      -7.988  16.046  69.144  0.00  0.00    +0.039 A 
ATOM     10  C   UNL     1      -8.064  17.428  68.969  0.00  0.00    +0.076 A 
ATOM     11  C   UNL     1      -6.925  18.160  68.648  0.00  0.00    +0.206 A 
ATOM     12  C   UNL     1      -6.856  18.995  67.537  0.00  0.00    +0.136 A 
ATOM     13  C   UNL     1      -8.078  19.427  67.093  0.00  0.00    +0.087 A 
ATOM     14  N   UNL     1      -9.245  19.004  67.645  0.00  0.00    -0.313 N 
ATOM     15  O   UNL     1      -5.882  17.839  69.274  0.00  0.00    -0.286 OA
ATOM     16  C   UNL     1      -9.261  18.008  68.562  0.00  0.00    +0.148 A 
ATOM     17  N   UNL     1     -10.394  17.421  68.996  0.00  0.00    -0.211 NA
ATOM     18  C   UNL     1     -12.081  14.357  69.389  0.00  0.00    +0.137 C 
ENDROOT
BRANCH  14  19
ATOM     19  C   UNL     1     -10.453  19.328  66.937  0.00  0.00    +0.087 C 
ATOM     20  C   UNL     1     -10.449  20.071  65.662  0.00  0.00    +0.025 C 
ATOM     21  C   UNL     1     -10.872  18.602  65.721  0.00  0.00    +0.025 C 
ENDBRANCH  14  19
BRANCH  12  22
ATOM     22  C   UNL     1      -5.608  19.080  66.764  0.00  0.00    +0.392 C 
ATOM     23  O   UNL     1      -5.489  18.169  65.707  0.00  0.00    -0.240 OA
ATOM     24  O   UNL     1      -5.269  20.260  66.432  0.00  0.00    -0.240 OA
ENDBRANCH  12  22
BRANCH   1  26
ATOM     25  C   UNL     1     -11.403  10.122  69.552  0.00  0.00    +0.288 C 
ATOM     26  O   UNL     1     -11.546  11.506  69.578  0.00  0.00    -0.374 OA
ENDBRANCH   1  26
BRANCH   3  27
ATOM     27  C   UNL     1     -13.572  15.356  71.057  0.00  0.00    +0.117 C 
ATOM     28  N   UNL     1     -14.247  15.824  72.270  0.00  0.00    -0.131 NA
ENDBRANCH   3  27
TORSDOF 4
ENDMDL
MODEL 8
REMARK VINA RESULT:      -6.4      3.854      7.962
REMARK  Name = 
REMARK  4 active torsions:
REMARK  status: ('A' for Active; 'I' for Inactive)
REMARK    1  A    between atoms: O_2  and  N_3
REMARK    2  A    between atoms: C_16  and  C_17
REMARK    3  A    between atoms: N_21  and  C_22
REMARK    4  A    between atoms: C_26  and  C_27
REMARK                            x       y       z     vdW  Elec       q    Type
REMARK                         _______ _______ _______ _____ _____    ______ ____
ROOT
ATOM      1  N   UNL     1     -10.429   7.222  70.320  0.00  0.00    -0.090 NA
ATOM      2  C   UNL     1      -9.708   8.292  70.383  0.00  0.00    +0.097 C 
ATOM      3  C   UNL     1      -8.187   8.113  69.899  0.00  0.00    +0.080 C 
ATOM      4  C   UNL     1      -8.383   9.077  68.593  0.00  0.00    +0.100 C 
ATOM      5  N   UNL     1      -9.082  10.192  69.189  0.00  0.00    -0.286 N 
ATOM      6  C   UNL     1      -9.614  11.189  68.310  0.00  0.00    +0.161 A 
ATOM      7  C   UNL     1     -10.603  10.760  67.430  0.00  0.00    +0.172 A 
ATOM      8  F   UNL     1     -11.653  10.096  67.996  0.00  0.00    -0.201 F 
ATOM      9  C   UNL     1     -10.733  11.408  66.204  0.00  0.00    +0.039 A 
ATOM     10  C   UNL     1      -9.999  12.584  66.053  0.00  0.00    +0.076 A 
ATOM     11  C   UNL     1     -10.227  13.421  64.965  0.00  0.00    +0.206 A 
ATOM     12  C   UNL     1     -10.532  14.771  65.105  0.00  0.00    +0.136 A 
ATOM     13  C   UNL     1     -10.113  15.313  66.291  0.00  0.00    +0.087 A 
ATOM     14  N   UNL     1      -9.528  14.570  67.266  0.00  0.00    -0.313 N 
ATOM     15  O   UNL     1     -10.384  12.840  63.860  0.00  0.00    -0.286 OA
ATOM     16  C   UNL     1      -9.474  13.220  67.174  0.00  0.00    +0.148 A 
ATOM     17  N   UNL     1      -9.084  12.425  68.190  0.00  0.00    -0.211 NA
ATOM     18  C   UNL     1      -9.990   9.704  70.230  0.00  0.00    +0.137 C 
ENDROOT
BRANCH  14  19
ATOM     19  C   UNL     1      -9.363  15.194  68.550  0.00  0.00    +0.087 C 
ATOM     20  C   UNL     1      -8.628  16.463  68.724  0.00  0.00    +0.025 C 
ATOM     21  C   UNL     1     -10.139  16.385  68.952  0.00  0.00    +0.025 C 
ENDBRANCH  14  19
BRANCH  12  22
ATOM     22  C   UNL     1     -11.506  15.397  64.199  0.00  0.00    +0.392 C 
ATOM     23  O   UNL     1     -12.818  14.912  64.292  0.00  0.00    -0.240 OA
ATOM     24  O   UNL     1     -11.458  16.668  64.163  0.00  0.00    -0.240 OA
ENDBRANCH  12  22
BRANCH   1  26
ATOM     25  C   UNL     1     -12.604   7.222  71.350  0.00  0.00    +0.288 C 
ATOM     26  O   UNL     1     -11.772   7.406  70.250  0.00  0.00    -0.374 OA
ENDBRANCH   1  26
BRANCH   3  27
ATOM     27  C   UNL     1      -7.645   9.340  70.841  0.00  0.00    +0.117 C 
ATOM     28  N   UNL     1      -7.259   8.541  72.006  0.00  0.00    -0.131 NA
ENDBRANCH   3  27
TORSDOF 4
ENDMDL
MODEL 9
REMARK VINA RESULT:      -6.3      4.326      6.432
REMARK  Name = 
REMARK  4 active torsions:
REMARK  status: ('A' for Active; 'I' for Inactive)
REMARK    1  A    between atoms: O_2  and  N_3
REMARK    2  A    between atoms: C_16  and  C_17
REMARK    3  A    between atoms: N_21  and  C_22
REMARK    4  A    between atoms: C_26  and  C_27
REMARK                            x       y       z     vdW  Elec       q    Type
REMARK                         _______ _______ _______ _____ _____    ______ ____
ROOT
ATOM      1  N   UNL     1      -3.115  20.952  68.419  0.00  0.00    -0.090 NA
ATOM      2  C   UNL     1      -3.830  20.115  69.095  0.00  0.00    +0.097 C 
ATOM      3  C   UNL     1      -4.778  20.780  70.209  0.00  0.00    +0.080 C 
ATOM      4  C   UNL     1      -6.154  20.362  69.431  0.00  0.00    +0.100 C 
ATOM      5  N   UNL     1      -5.867  18.985  69.104  0.00  0.00    -0.286 N 
ATOM      6  C   UNL     1      -6.776  18.306  68.231  0.00  0.00    +0.161 A 
ATOM      7  C   UNL     1      -6.878  18.817  66.940  0.00  0.00    +0.172 A 
ATOM      8  F   UNL     1      -5.698  18.980  66.274  0.00  0.00    -0.201 F 
ATOM      9  C   UNL     1      -8.081  18.668  66.256  0.00  0.00    +0.039 A 
ATOM     10  C   UNL     1      -9.018  17.820  66.844  0.00  0.00    +0.076 A 
ATOM     11  C   UNL     1     -10.153  17.429  66.140  0.00  0.00    +0.206 A 
ATOM     12  C   UNL     1     -10.496  16.094  65.948  0.00  0.00    +0.136 A 
ATOM     13  C   UNL     1      -9.961  15.245  66.881  0.00  0.00    +0.087 A 
ATOM     14  N   UNL     1      -9.107  15.670  67.848  0.00  0.00    -0.313 N 
ATOM     15  O   UNL     1     -10.717  18.336  65.477  0.00  0.00    -0.286 OA
ATOM     16  C   UNL     1      -8.619  16.934  67.840  0.00  0.00    +0.148 A 
ATOM     17  N   UNL     1      -7.629  17.349  68.655  0.00  0.00    -0.211 NA
ATOM     18  C   UNL     1      -4.444  18.841  68.787  0.00  0.00    +0.137 C 
ENDROOT
BRANCH  14  19
ATOM     19  C   UNL     1      -8.422  14.657  68.603  0.00  0.00    +0.087 C 
ATOM     20  C   UNL     1      -8.508  13.223  68.262  0.00  0.00    +0.025 C 
ATOM     21  C   UNL     1      -7.197  13.998  68.105  0.00  0.00    +0.025 C 
ENDBRANCH  14  19
BRANCH  12  22
ATOM     22  C   UNL     1     -11.081  15.667  64.669  0.00  0.00    +0.392 C 
ATOM     23  O   UNL     1     -11.905  14.536  64.727  0.00  0.00    -0.240 OA
ATOM     24  O   UNL     1     -11.591  16.607  63.979  0.00  0.00    -0.240 OA
ENDBRANCH  12  22
BRANCH   1  26
ATOM     25  C   UNL     1      -3.110  21.126  66.019  0.00  0.00    +0.288 C 
ATOM     26  O   UNL     1      -2.686  20.530  67.203  0.00  0.00    -0.374 OA
ENDBRANCH   1  26
BRANCH   3  27
ATOM     27  C   UNL     1      -4.784  19.431  71.141  0.00  0.00    +0.117 C 
ATOM     28  N   UNL     1      -3.935  19.933  72.224  0.00  0.00    -0.131 NA
ENDBRANCH   3  27
TORSDOF 4
ENDMDL
