MODEL 1
REMARK VINA RESULT:      -6.8      0.000      0.000
REMARK  Name = 
REMARK  7 active torsions:
REMARK  status: ('A' for Active; 'I' for Inactive)
REMARK    1  A    between atoms: N_2  and  C_3
REMARK    2  A    between atoms: N_2  and  C_20
REMARK    3  A    between atoms: C_3  and  C_4
REMARK    4  A    between atoms: C_4  and  O_5
REMARK    5  A    between atoms: O_5  and  C_6
REMARK    6  A    between atoms: C_9  and  C_10
REMARK    7  A    between atoms: C_10  and  C_11
REMARK                            x       y       z     vdW  Elec       q    Type
REMARK                         _______ _______ _______ _____ _____    ______ ____
ROOT
ATOM      1  C   UNL     1     -10.311  13.224  67.501  0.00  0.00    +0.139 A 
ATOM      2  C   UNL     1     -10.535  12.188  68.397  0.00  0.00    +0.037 A 
ATOM      3  C   UNL     1     -11.491  12.296  69.399  0.00  0.00    -0.001 A 
ATOM      4  C   UNL     1     -12.146  13.496  69.618  0.00  0.00    -0.021 A 
ATOM      5  C   UNL     1     -12.130  14.391  68.556  0.00  0.00    -0.001 A 
ATOM      6  C   UNL     1     -11.201  14.280  67.533  0.00  0.00    +0.037 A 
ENDROOT
BRANCH   4   7
ATOM      7  C   UNL     1     -12.456  13.966  70.986  0.00  0.00    +0.047 C 
BRANCH   7   8
ATOM      8  C   UNL     1     -13.026  15.438  70.796  0.00  0.00    +0.139 C 
ATOM      9  C   UNL     1     -14.265  15.242  71.719  0.00  0.00    +0.259 C 
ATOM     10  O   UNL     1     -15.396  15.354  71.195  0.00  0.00    -0.272 OA
ATOM     11  N   UNL     1     -13.844  14.572  72.881  0.00  0.00    -0.135 NA
ATOM     12  C   UNL     1     -12.777  15.272  73.535  0.00  0.00    +0.299 C 
ATOM     13  O   UNL     1     -12.053  14.662  74.379  0.00  0.00    -0.261 OA
ATOM     14  S   UNL     1     -12.002  16.204  72.205  0.00  0.00    -0.046 S 
ENDBRANCH   7   8
ENDBRANCH   4   7
BRANCH   1  15
ATOM     15  O   UNL     1      -9.075  13.343  66.901  0.00  0.00    -0.474 OA
BRANCH  15  16
ATOM     16  C   UNL     1      -8.048  14.117  67.519  0.00  0.00    +0.227 C 
BRANCH  16  17
ATOM     17  C   UNL     1      -8.054  15.483  66.845  0.00  0.00    +0.140 C 
BRANCH  17  19
ATOM     18  C   UNL     1      -7.617  16.531  68.863  0.00  0.00    +0.114 C 
ATOM     19  N   UNL     1      -8.258  16.494  67.878  0.00  0.00    -0.288 N 
BRANCH  19  20
ATOM     20  C   UNL     1      -9.269  17.473  67.612  0.00  0.00    +0.132 A 
ATOM     21  N   UNL     1      -9.482  17.725  66.296  0.00  0.00    -0.229 NA
ATOM     22  C   UNL     1     -10.362  18.693  65.999  0.00  0.00    +0.100 A 
ATOM     23  C   UNL     1     -10.722  19.638  66.944  0.00  0.00    +0.021 A 
ATOM     24  C   UNL     1      -9.963  19.701  68.105  0.00  0.00    +0.004 A 
ATOM     25  C   UNL     1      -9.260  18.577  68.456  0.00  0.00    +0.034 A 
ENDBRANCH  19  20
ENDBRANCH  17  19
ENDBRANCH  16  17
ENDBRANCH  15  16
ENDBRANCH   1  15
TORSDOF 7
ENDMDL
MODEL 2
REMARK VINA RESULT:      -6.7      2.777      6.323
REMARK  Name = 
REMARK  7 active torsions:
REMARK  status: ('A' for Active; 'I' for Inactive)
REMARK    1  A    between atoms: N_2  and  C_3
REMARK    2  A    between atoms: N_2  and  C_20
REMARK    3  A    between atoms: C_3  and  C_4
REMARK    4  A    between atoms: C_4  and  O_5
REMARK    5  A    between atoms: O_5  and  C_6
REMARK    6  A    between atoms: C_9  and  C_10
REMARK    7  A    between atoms: C_10  and  C_11
REMARK                            x       y       z     vdW  Elec       q    Type
REMARK                         _______ _______ _______ _____ _____    ______ ____
ROOT
ATOM      1  C   UNL     1     -11.431  12.539  66.139  0.00  0.00    +0.139 A 
ATOM      2  C   UNL     1     -12.244  13.433  65.457  0.00  0.00    +0.037 A 
ATOM      3  C   UNL     1     -11.762  14.665  65.031  0.00  0.00    -0.001 A 
ATOM      4  C   UNL     1     -10.497  15.091  65.402  0.00  0.00    -0.021 A 
ATOM      5  C   UNL     1      -9.624  14.091  65.810  0.00  0.00    -0.001 A 
ATOM      6  C   UNL     1     -10.086  12.847  66.210  0.00  0.00    +0.037 A 
ENDROOT
BRANCH   4   7
ATOM      7  C   UNL     1     -10.232  16.503  65.753  0.00  0.00    +0.047 C 
BRANCH   7   8
ATOM      8  C   UNL     1      -8.919  16.464  66.647  0.00  0.00    +0.139 C 
ATOM      9  C   UNL     1      -8.355  17.828  66.148  0.00  0.00    +0.259 C 
ATOM     10  O   UNL     1      -7.256  17.813  65.550  0.00  0.00    -0.272 OA
ATOM     11  N   UNL     1      -9.412  18.755  66.122  0.00  0.00    -0.135 NA
ATOM     12  C   UNL     1     -10.052  18.860  67.401  0.00  0.00    +0.299 C 
ATOM     13  O   UNL     1     -11.211  19.370  67.481  0.00  0.00    -0.261 OA
ATOM     14  S   UNL     1      -9.723  17.269  68.173  0.00  0.00    -0.046 S 
ENDBRANCH   7   8
ENDBRANCH   4   7
BRANCH   1  15
ATOM     15  O   UNL     1     -12.005  11.622  66.995  0.00  0.00    -0.474 OA
BRANCH  15  16
ATOM     16  C   UNL     1     -11.549  11.514  68.343  0.00  0.00    +0.227 C 
BRANCH  16  17
ATOM     17  C   UNL     1     -11.944  12.803  69.050  0.00  0.00    +0.140 C 
BRANCH  17  19
ATOM     18  C   UNL     1     -12.369  11.367  70.817  0.00  0.00    +0.114 C 
ATOM     19  N   UNL     1     -12.276  12.474  70.433  0.00  0.00    -0.288 N 
BRANCH  19  20
ATOM     20  C   UNL     1     -12.451  13.586  71.321  0.00  0.00    +0.132 A 
ATOM     21  N   UNL     1     -13.724  13.774  71.748  0.00  0.00    -0.229 NA
ATOM     22  C   UNL     1     -13.952  14.851  72.516  0.00  0.00    +0.100 A 
ATOM     23  C   UNL     1     -13.058  15.908  72.538  0.00  0.00    +0.021 A 
ATOM     24  C   UNL     1     -12.068  15.927  71.564  0.00  0.00    +0.004 A 
ATOM     25  C   UNL     1     -11.739  14.730  70.981  0.00  0.00    +0.034 A 
ENDBRANCH  19  20
ENDBRANCH  17  19
ENDBRANCH  16  17
ENDBRANCH  15  16
ENDBRANCH   1  15
TORSDOF 7
ENDMDL
MODEL 3
REMARK VINA RESULT:      -6.6      4.663      8.912
REMARK  Name = 
REMARK  7 active torsions:
REMARK  status: ('A' for Active; 'I' for Inactive)
REMARK    1  A    between atoms: N_2  and  C_3
REMARK    2  A    between atoms: N_2  and  C_20
REMARK    3  A    between atoms: C_3  and  C_4
REMARK    4  A    between atoms: C_4  and  O_5
REMARK    5  A    between atoms: O_5  and  C_6
REMARK    6  A    between atoms: C_9  and  C_10
REMARK    7  A    between atoms: C_10  and  C_11
REMARK                            x       y       z     vdW  Elec       q    Type
REMARK                         _______ _______ _______ _____ _____    ______ ____
ROOT
ATOM      1  C   UNL     1     -12.029  12.251  70.271  0.00  0.00    +0.139 A 
ATOM      2  C   UNL     1     -11.391  11.625  69.210  0.00  0.00    +0.037 A 
ATOM      3  C   UNL     1     -11.145  12.297  68.020  0.00  0.00    -0.001 A 
ATOM      4  C   UNL     1     -11.658  13.566  67.810  0.00  0.00    -0.021 A 
ATOM      5  C   UNL     1     -12.018  14.264  68.956  0.00  0.00    -0.001 A 
ATOM      6  C   UNL     1     -12.238  13.612  70.159  0.00  0.00    +0.037 A 
ENDROOT
BRANCH   4   7
ATOM      7  C   UNL     1     -12.185  13.976  66.490  0.00  0.00    +0.047 C 
BRANCH   7   8
ATOM      8  C   UNL     1     -11.403  13.077  65.438  0.00  0.00    +0.139 C 
ATOM      9  C   UNL     1     -12.328  13.415  64.231  0.00  0.00    +0.259 C 
ATOM     10  O   UNL     1     -12.957  12.470  63.706  0.00  0.00    -0.272 OA
ATOM     11  N   UNL     1     -12.573  14.799  64.242  0.00  0.00    -0.135 NA
ATOM     12  C   UNL     1     -11.352  15.551  64.225  0.00  0.00    +0.299 C 
ATOM     13  O   UNL     1     -11.362  16.771  64.573  0.00  0.00    -0.261 OA
ATOM     14  S   UNL     1     -10.151  14.427  64.954  0.00  0.00    -0.046 S 
ENDBRANCH   7   8
ENDBRANCH   4   7
BRANCH   1  15
ATOM     15  O   UNL     1     -12.730  11.489  71.183  0.00  0.00    -0.474 OA
BRANCH  15  16
ATOM     16  C   UNL     1     -13.144  10.166  70.846  0.00  0.00    +0.227 C 
BRANCH  16  17
ATOM     17  C   UNL     1     -13.339   9.414  72.157  0.00  0.00    +0.140 C 
BRANCH  17  19
ATOM     18  C   UNL     1     -14.535   7.533  71.529  0.00  0.00    +0.114 C 
ATOM     19  N   UNL     1     -13.502   7.998  71.843  0.00  0.00    -0.288 N 
BRANCH  19  20
ATOM     20  C   UNL     1     -12.315   7.198  71.905  0.00  0.00    +0.132 A 
ATOM     21  N   UNL     1     -11.343   7.687  72.714  0.00  0.00    -0.229 NA
ATOM     22  C   UNL     1     -10.182   7.016  72.741  0.00  0.00    +0.100 A 
ATOM     23  C   UNL     1      -9.849   6.134  71.727  0.00  0.00    +0.021 A 
ATOM     24  C   UNL     1     -10.626   6.163  70.576  0.00  0.00    +0.004 A 
ATOM     25  C   UNL     1     -11.895   6.669  70.689  0.00  0.00    +0.034 A 
ENDBRANCH  19  20
ENDBRANCH  17  19
ENDBRANCH  16  17
ENDBRANCH  15  16
ENDBRANCH   1  15
TORSDOF 7
ENDMDL
MODEL 4
REMARK VINA RESULT:      -6.6      2.981      3.986
REMARK  Name = 
REMARK  7 active torsions:
REMARK  status: ('A' for Active; 'I' for Inactive)
REMARK    1  A    between atoms: N_2  and  C_3
REMARK    2  A    between atoms: N_2  and  C_20
REMARK    3  A    between atoms: C_3  and  C_4
REMARK    4  A    between atoms: C_4  and  O_5
REMARK    5  A    between atoms: O_5  and  C_6
REMARK    6  A    between atoms: C_9  and  C_10
REMARK    7  A    between atoms: C_10  and  C_11
REMARK                            x       y       z     vdW  Elec       q    Type
REMARK                         _______ _______ _______ _____ _____    ______ ____
ROOT
ATOM      1  C   UNL     1     -10.468  11.730  68.051  0.00  0.00    +0.139 A 
ATOM      2  C   UNL     1     -11.564  11.194  68.710  0.00  0.00    +0.037 A 
ATOM      3  C   UNL     1     -12.380  11.983  69.510  0.00  0.00    -0.001 A 
ATOM      4  C   UNL     1     -12.037  13.297  69.784  0.00  0.00    -0.021 A 
ATOM      5  C   UNL     1     -11.135  13.878  68.902  0.00  0.00    -0.001 A 
ATOM      6  C   UNL     1     -10.335  13.105  68.075  0.00  0.00    +0.037 A 
ENDROOT
BRANCH   4   7
ATOM      7  C   UNL     1     -12.257  13.888  71.123  0.00  0.00    +0.047 C 
BRANCH   7   8
ATOM      8  C   UNL     1     -12.943  15.294  70.843  0.00  0.00    +0.139 C 
ATOM      9  C   UNL     1     -14.198  15.030  71.727  0.00  0.00    +0.259 C 
ATOM     10  O   UNL     1     -15.312  15.020  71.157  0.00  0.00    -0.272 OA
ATOM     11  N   UNL     1     -13.769  14.451  72.934  0.00  0.00    -0.135 NA
ATOM     12  C   UNL     1     -12.794  15.269  73.594  0.00  0.00    +0.299 C 
ATOM     13  O   UNL     1     -12.056  14.763  74.492  0.00  0.00    -0.261 OA
ATOM     14  S   UNL     1     -12.048  16.208  72.252  0.00  0.00    -0.046 S 
ENDBRANCH   7   8
ENDBRANCH   4   7
BRANCH   1  15
ATOM     15  O   UNL     1      -9.405  10.911  67.730  0.00  0.00    -0.474 OA
BRANCH  15  16
ATOM     16  C   UNL     1      -8.892  10.887  66.399  0.00  0.00    +0.227 C 
BRANCH  16  17
ATOM     17  C   UNL     1     -10.020  10.404  65.497  0.00  0.00    +0.140 C 
BRANCH  17  19
ATOM     18  C   UNL     1      -9.386  10.918  63.330  0.00  0.00    +0.114 C 
ATOM     19  N   UNL     1     -10.005  11.216  64.284  0.00  0.00    -0.288 N 
BRANCH  19  20
ATOM     20  C   UNL     1     -10.820  12.393  64.303  0.00  0.00    +0.132 A 
ATOM     21  N   UNL     1     -10.156  13.538  64.599  0.00  0.00    -0.229 NA
ATOM     22  C   UNL     1     -10.892  14.654  64.709  0.00  0.00    +0.100 A 
ATOM     23  C   UNL     1     -12.261  14.584  64.910  0.00  0.00    +0.021 A 
ATOM     24  C   UNL     1     -12.793  13.347  65.244  0.00  0.00    +0.004 A 
ATOM     25  C   UNL     1     -12.070  12.236  64.892  0.00  0.00    +0.034 A 
ENDBRANCH  19  20
ENDBRANCH  17  19
ENDBRANCH  16  17
ENDBRANCH  15  16
ENDBRANCH   1  15
TORSDOF 7
ENDMDL
MODEL 5
REMARK VINA RESULT:      -6.6      2.729      6.092
REMARK  Name = 
REMARK  7 active torsions:
REMARK  status: ('A' for Active; 'I' for Inactive)
REMARK    1  A    between atoms: N_2  and  C_3
REMARK    2  A    between atoms: N_2  and  C_20
REMARK    3  A    between atoms: C_3  and  C_4
REMARK    4  A    between atoms: C_4  and  O_5
REMARK    5  A    between atoms: O_5  and  C_6
REMARK    6  A    between atoms: C_9  and  C_10
REMARK    7  A    between atoms: C_10  and  C_11
REMARK                            x       y       z     vdW  Elec       q    Type
REMARK                         _______ _______ _______ _____ _____    ______ ____
ROOT
ATOM      1  C   UNL     1     -10.862  13.605  66.225  0.00  0.00    +0.139 A 
ATOM      2  C   UNL     1     -11.357  14.613  65.411  0.00  0.00    +0.037 A 
ATOM      3  C   UNL     1     -10.640  15.783  65.197  0.00  0.00    -0.001 A 
ATOM      4  C   UNL     1      -9.477  16.034  65.906  0.00  0.00    -0.021 A 
ATOM      5  C   UNL     1      -8.864  14.920  66.465  0.00  0.00    -0.001 A 
ATOM      6  C   UNL     1      -9.557  13.735  66.658  0.00  0.00    +0.037 A 
ENDROOT
BRANCH   4   7
ATOM      7  C   UNL     1      -9.150  17.391  66.396  0.00  0.00    +0.047 C 
BRANCH   7   8
ATOM      8  C   UNL     1     -10.526  17.975  66.934  0.00  0.00    +0.139 C 
ATOM      9  C   UNL     1     -10.078  18.074  68.423  0.00  0.00    +0.259 C 
ATOM     10  O   UNL     1     -10.704  17.386  69.260  0.00  0.00    -0.272 OA
ATOM     11  N   UNL     1      -8.783  18.620  68.454  0.00  0.00    -0.135 NA
ATOM     12  C   UNL     1      -8.726  19.883  67.778  0.00  0.00    +0.299 C 
ATOM     13  O   UNL     1      -7.605  20.348  67.410  0.00  0.00    -0.261 OA
ATOM     14  S   UNL     1     -10.084  19.796  66.600  0.00  0.00    -0.046 S 
ENDBRANCH   7   8
ENDBRANCH   4   7
BRANCH   1  15
ATOM     15  O   UNL     1     -11.744  12.746  66.848  0.00  0.00    -0.474 OA
BRANCH  15  16
ATOM     16  C   UNL     1     -11.513  12.329  68.193  0.00  0.00    +0.227 C 
BRANCH  16  17
ATOM     17  C   UNL     1     -11.947  13.477  69.095  0.00  0.00    +0.140 C 
BRANCH  17  19
ATOM     18  C   UNL     1     -12.232  11.769  70.633  0.00  0.00    +0.114 C 
ATOM     19  N   UNL     1     -12.267  12.922  70.407  0.00  0.00    -0.288 N 
BRANCH  19  20
ATOM     20  C   UNL     1     -12.596  13.871  71.429  0.00  0.00    +0.132 A 
ATOM     21  N   UNL     1     -13.899  14.244  71.457  0.00  0.00    -0.229 NA
ATOM     22  C   UNL     1     -14.239  15.192  72.344  0.00  0.00    +0.100 A 
ATOM     23  C   UNL     1     -13.278  16.016  72.904  0.00  0.00    +0.021 A 
ATOM     24  C   UNL     1     -12.012  15.999  72.334  0.00  0.00    +0.004 A 
ATOM     25  C   UNL     1     -11.661  14.882  71.620  0.00  0.00    +0.034 A 
ENDBRANCH  19  20
ENDBRANCH  17  19
ENDBRANCH  16  17
ENDBRANCH  15  16
ENDBRANCH   1  15
TORSDOF 7
ENDMDL
MODEL 6
REMARK VINA RESULT:      -6.6      4.231      5.383
REMARK  Name = 
REMARK  7 active torsions:
REMARK  status: ('A' for Active; 'I' for Inactive)
REMARK    1  A    between atoms: N_2  and  C_3
REMARK    2  A    between atoms: N_2  and  C_20
REMARK    3  A    between atoms: C_3  and  C_4
REMARK    4  A    between atoms: C_4  and  O_5
REMARK    5  A    between atoms: O_5  and  C_6
REMARK    6  A    between atoms: C_9  and  C_10
REMARK    7  A    between atoms: C_10  and  C_11
REMARK                            x       y       z     vdW  Elec       q    Type
REMARK                         _______ _______ _______ _____ _____    ______ ____
ROOT
ATOM      1  C   UNL     1     -12.381  13.176  70.721  0.00  0.00    +0.139 A 
ATOM      2  C   UNL     1     -11.892  12.496  69.616  0.00  0.00    +0.037 A 
ATOM      3  C   UNL     1     -11.891  11.108  69.565  0.00  0.00    -0.001 A 
ATOM      4  C   UNL     1     -12.247  10.365  70.679  0.00  0.00    -0.021 A 
ATOM      5  C   UNL     1     -12.996  11.039  71.635  0.00  0.00    -0.001 A 
ATOM      6  C   UNL     1     -13.032  12.423  71.680  0.00  0.00    +0.037 A 
ENDROOT
BRANCH   4   7
ATOM      7  C   UNL     1     -11.537   9.116  71.030  0.00  0.00    +0.047 C 
BRANCH   7   8
ATOM      8  C   UNL     1     -12.340   8.521  72.266  0.00  0.00    +0.139 C 
ATOM      9  C   UNL     1     -12.979   7.339  71.478  0.00  0.00    +0.259 C 
ATOM     10  O   UNL     1     -14.227   7.313  71.391  0.00  0.00    -0.272 OA
ATOM     11  N   UNL     1     -11.981   6.758  70.676  0.00  0.00    -0.135 NA
ATOM     12  C   UNL     1     -10.849   6.350  71.455  0.00  0.00    +0.299 C 
ATOM     13  O   UNL     1      -9.739   6.132  70.881  0.00  0.00    -0.261 OA
ATOM     14  S   UNL     1     -10.911   7.431  72.893  0.00  0.00    -0.046 S 
ENDBRANCH   7   8
ENDBRANCH   4   7
BRANCH   1  15
ATOM     15  O   UNL     1     -11.909  14.442  71.000  0.00  0.00    -0.474 OA
BRANCH  15  16
ATOM     16  C   UNL     1     -12.212  15.531  70.129  0.00  0.00    +0.227 C 
BRANCH  16  17
ATOM     17  C   UNL     1     -10.901  16.252  69.845  0.00  0.00    +0.140 C 
BRANCH  17  19
ATOM     18  C   UNL     1     -11.045  15.467  67.671  0.00  0.00    +0.114 C 
ATOM     19  N   UNL     1     -10.740  16.340  68.397  0.00  0.00    -0.288 N 
BRANCH  19  20
ATOM     20  C   UNL     1     -10.217  17.576  67.895  0.00  0.00    +0.132 A 
ATOM     21  N   UNL     1     -10.269  18.610  68.770  0.00  0.00    -0.229 NA
ATOM     22  C   UNL     1      -9.866  19.807  68.318  0.00  0.00    +0.100 A 
ATOM     23  C   UNL     1      -9.788  20.062  66.959  0.00  0.00    +0.021 A 
ATOM     24  C   UNL     1     -10.376  19.141  66.103  0.00  0.00    +0.004 A 
ATOM     25  C   UNL     1     -10.551  17.866  66.577  0.00  0.00    +0.034 A 
ENDBRANCH  19  20
ENDBRANCH  17  19
ENDBRANCH  16  17
ENDBRANCH  15  16
ENDBRANCH   1  15
TORSDOF 7
ENDMDL
MODEL 7
REMARK VINA RESULT:      -6.6      2.822      5.217
REMARK  Name = 
REMARK  7 active torsions:
REMARK  status: ('A' for Active; 'I' for Inactive)
REMARK    1  A    between atoms: N_2  and  C_3
REMARK    2  A    between atoms: N_2  and  C_20
REMARK    3  A    between atoms: C_3  and  C_4
REMARK    4  A    between atoms: C_4  and  O_5
REMARK    5  A    between atoms: O_5  and  C_6
REMARK    6  A    between atoms: C_9  and  C_10
REMARK    7  A    between atoms: C_10  and  C_11
REMARK                            x       y       z     vdW  Elec       q    Type
REMARK                         _______ _______ _______ _____ _____    ______ ____
ROOT
ATOM      1  C   UNL     1      -9.918  15.301  67.158  0.00  0.00    +0.139 A 
ATOM      2  C   UNL     1     -10.396  16.558  67.496  0.00  0.00    +0.037 A 
ATOM      3  C   UNL     1     -10.929  16.813  68.753  0.00  0.00    -0.001 A 
ATOM      4  C   UNL     1     -11.127  15.780  69.654  0.00  0.00    -0.021 A 
ATOM      5  C   UNL     1     -10.388  14.628  69.419  0.00  0.00    -0.001 A 
ATOM      6  C   UNL     1      -9.824  14.373  68.179  0.00  0.00    +0.037 A 
ENDROOT
BRANCH   4   7
ATOM      7  C   UNL     1     -12.325  15.734  70.522  0.00  0.00    +0.047 C 
BRANCH   7   8
ATOM      8  C   UNL     1     -11.850  14.979  71.837  0.00  0.00    +0.139 C 
ATOM      9  C   UNL     1     -12.670  15.862  72.824  0.00  0.00    +0.259 C 
ATOM     10  O   UNL     1     -12.030  16.529  73.668  0.00  0.00    -0.272 OA
ATOM     11  N   UNL     1     -13.958  16.035  72.289  0.00  0.00    -0.135 NA
ATOM     12  C   UNL     1     -14.592  14.778  72.021  0.00  0.00    +0.299 C 
ATOM     13  O   UNL     1     -15.587  14.732  71.236  0.00  0.00    -0.261 OA
ATOM     14  S   UNL     1     -13.211  13.650  71.776  0.00  0.00    -0.046 S 
ENDBRANCH   7   8
ENDBRANCH   4   7
BRANCH   1  15
ATOM     15  O   UNL     1      -9.905  14.916  65.834  0.00  0.00    -0.474 OA
BRANCH  15  16
ATOM     16  C   UNL     1     -11.047  15.140  65.009  0.00  0.00    +0.227 C 
BRANCH  16  17
ATOM     17  C   UNL     1     -12.063  14.058  65.352  0.00  0.00    +0.140 C 
BRANCH  17  19
ATOM     18  C   UNL     1     -12.067  12.716  63.465  0.00  0.00    +0.114 C 
ATOM     19  N   UNL     1     -11.728  12.865  64.581  0.00  0.00    -0.288 N 
BRANCH  19  20
ATOM     20  C   UNL     1     -10.924  11.886  65.250  0.00  0.00    +0.132 A 
ATOM     21  N   UNL     1     -10.541  10.841  64.476  0.00  0.00    -0.229 NA
ATOM     22  C   UNL     1      -9.855   9.859  65.080  0.00  0.00    +0.100 A 
ATOM     23  C   UNL     1      -9.885   9.716  66.457  0.00  0.00    +0.021 A 
ATOM     24  C   UNL     1     -10.835  10.452  67.154  0.00  0.00    +0.004 A 
ATOM     25  C   UNL     1     -11.326  11.578  66.545  0.00  0.00    +0.034 A 
ENDBRANCH  19  20
ENDBRANCH  17  19
ENDBRANCH  16  17
ENDBRANCH  15  16
ENDBRANCH   1  15
TORSDOF 7
ENDMDL
MODEL 8
REMARK VINA RESULT:      -6.4      4.686      8.083
REMARK  Name = 
REMARK  7 active torsions:
REMARK  status: ('A' for Active; 'I' for Inactive)
REMARK    1  A    between atoms: N_2  and  C_3
REMARK    2  A    between atoms: N_2  and  C_20
REMARK    3  A    between atoms: C_3  and  C_4
REMARK    4  A    between atoms: C_4  and  O_5
REMARK    5  A    between atoms: O_5  and  C_6
REMARK    6  A    between atoms: C_9  and  C_10
REMARK    7  A    between atoms: C_10  and  C_11
REMARK                            x       y       z     vdW  Elec       q    Type
REMARK                         _______ _______ _______ _____ _____    ______ ____
ROOT
ATOM      1  C   UNL     1      -8.630  17.795  68.555  0.00  0.00    +0.139 A 
ATOM      2  C   UNL     1      -8.433  19.167  68.523  0.00  0.00    +0.037 A 
ATOM      3  C   UNL     1      -7.227  19.731  68.920  0.00  0.00    -0.001 A 
ATOM      4  C   UNL     1      -6.240  18.947  69.494  0.00  0.00    -0.021 A 
ATOM      5  C   UNL     1      -6.336  17.584  69.244  0.00  0.00    -0.001 A 
ATOM      6  C   UNL     1      -7.524  17.010  68.819  0.00  0.00    +0.037 A 
ENDROOT
BRANCH   4   7
ATOM      7  C   UNL     1      -5.418  19.444  70.620  0.00  0.00    +0.047 C 
BRANCH   7   8
ATOM      8  C   UNL     1      -5.004  20.921  70.205  0.00  0.00    +0.139 C 
ATOM      9  C   UNL     1      -4.120  21.188  71.460  0.00  0.00    +0.259 C 
ATOM     10  O   UNL     1      -4.469  22.116  72.223  0.00  0.00    -0.272 OA
ATOM     11  N   UNL     1      -3.327  20.050  71.687  0.00  0.00    -0.135 NA
ATOM     12  C   UNL     1      -2.551  19.708  70.531  0.00  0.00    +0.299 C 
ATOM     13  O   UNL     1      -2.055  18.545  70.430  0.00  0.00    -0.261 OA
ATOM     14  S   UNL     1      -3.501  20.393  69.164  0.00  0.00    -0.046 S 
ENDBRANCH   7   8
ENDBRANCH   4   7
BRANCH   1  15
ATOM     15  O   UNL     1      -9.911  17.299  68.689  0.00  0.00    -0.474 OA
BRANCH  15  16
ATOM     16  C   UNL     1     -10.231  15.994  68.208  0.00  0.00    +0.227 C 
BRANCH  16  17
ATOM     17  C   UNL     1     -11.718  15.781  68.457  0.00  0.00    +0.140 C 
BRANCH  17  19
ATOM     18  C   UNL     1     -11.589  13.695  69.455  0.00  0.00    +0.114 C 
ATOM     19  N   UNL     1     -11.859  14.835  69.560  0.00  0.00    -0.288 N 
BRANCH  19  20
ATOM     20  C   UNL     1     -12.316  15.380  70.803  0.00  0.00    +0.132 A 
ATOM     21  N   UNL     1     -11.482  15.176  71.853  0.00  0.00    -0.229 NA
ATOM     22  C   UNL     1     -11.905  15.597  73.054  0.00  0.00    +0.100 A 
ATOM     23  C   UNL     1     -13.246  15.850  73.284  0.00  0.00    +0.021 A 
ATOM     24  C   UNL     1     -14.151  15.414  72.326  0.00  0.00    +0.004 A 
ATOM     25  C   UNL     1     -13.673  15.219  71.055  0.00  0.00    +0.034 A 
ENDBRANCH  19  20
ENDBRANCH  17  19
ENDBRANCH  16  17
ENDBRANCH  15  16
ENDBRANCH   1  15
TORSDOF 7
ENDMDL
MODEL 9
REMARK VINA RESULT:      -6.4      4.373      7.423
REMARK  Name = 
REMARK  7 active torsions:
REMARK  status: ('A' for Active; 'I' for Inactive)
REMARK    1  A    between atoms: N_2  and  C_3
REMARK    2  A    between atoms: N_2  and  C_20
REMARK    3  A    between atoms: C_3  and  C_4
REMARK    4  A    between atoms: C_4  and  O_5
REMARK    5  A    between atoms: O_5  and  C_6
REMARK    6  A    between atoms: C_9  and  C_10
REMARK    7  A    between atoms: C_10  and  C_11
REMARK                            x       y       z     vdW  Elec       q    Type
REMARK                         _______ _______ _______ _____ _____    ______ ____
ROOT
ATOM      1  C   UNL     1     -10.461  17.895  66.271  0.00  0.00    +0.139 A 
ATOM      2  C   UNL     1     -10.328  17.318  67.526  0.00  0.00    +0.037 A 
ATOM      3  C   UNL     1      -9.734  18.006  68.576  0.00  0.00    -0.001 A 
ATOM      4  C   UNL     1      -9.129  19.233  68.359  0.00  0.00    -0.021 A 
ATOM      5  C   UNL     1      -9.527  19.903  67.209  0.00  0.00    -0.001 A 
ATOM      6  C   UNL     1     -10.148  19.237  66.165  0.00  0.00    +0.037 A 
ENDROOT
BRANCH   4   7
ATOM      7  C   UNL     1      -7.868  19.602  69.039  0.00  0.00    +0.047 C 
BRANCH   7   8
ATOM      8  C   UNL     1      -6.743  19.454  67.926  0.00  0.00    +0.139 C 
ATOM      9  C   UNL     1      -5.976  20.754  68.313  0.00  0.00    +0.259 C 
ATOM     10  O   UNL     1      -5.902  21.657  67.450  0.00  0.00    -0.272 OA
ATOM     11  N   UNL     1      -5.870  20.799  69.714  0.00  0.00    -0.135 NA
ATOM     12  C   UNL     1      -5.246  19.617  70.234  0.00  0.00    +0.299 C 
ATOM     13  O   UNL     1      -5.375  19.329  71.462  0.00  0.00    -0.261 OA
ATOM     14  S   UNL     1      -5.592  18.369  68.985  0.00  0.00    -0.046 S 
ENDBRANCH   7   8
ENDBRANCH   4   7
BRANCH   1  15
ATOM     15  O   UNL     1     -10.534  17.084  65.158  0.00  0.00    -0.474 OA
BRANCH  15  16
ATOM     16  C   UNL     1     -10.220  15.695  65.259  0.00  0.00    +0.227 C 
BRANCH  16  17
ATOM     17  C   UNL     1     -11.488  14.927  64.908  0.00  0.00    +0.140 C 
BRANCH  17  19
ATOM     18  C   UNL     1     -12.088  13.989  66.938  0.00  0.00    +0.114 C 
ATOM     19  N   UNL     1     -11.632  13.835  65.866  0.00  0.00    -0.288 N 
BRANCH  19  20
ATOM     20  C   UNL     1     -11.215  12.541  65.414  0.00  0.00    +0.132 A 
ATOM     21  N   UNL     1     -10.066  12.088  65.976  0.00  0.00    -0.229 NA
ATOM     22  C   UNL     1      -9.592  10.917  65.524  0.00  0.00    +0.100 A 
ATOM     23  C   UNL     1     -10.007  10.406  64.306  0.00  0.00    +0.021 A 
ATOM     24  C   UNL     1     -10.719  11.255  63.468  0.00  0.00    +0.004 A 
ATOM     25  C   UNL     1     -11.365  12.315  64.051  0.00  0.00    +0.034 A 
ENDBRANCH  19  20
ENDBRANCH  17  19
ENDBRANCH  16  17
ENDBRANCH  15  16
ENDBRANCH   1  15
TORSDOF 7
ENDMDL
