MODEL 1
REMARK VINA RESULT:      -7.2      0.000      0.000
REMARK  Name = 
REMARK  5 active torsions:
REMARK  status: ('A' for Active; 'I' for Inactive)
REMARK    1  A    between atoms: N_10  and  C_11
REMARK    2  A    between atoms: C_11  and  C_12
REMARK    3  A    between atoms: C_12  and  C_13
REMARK    4  A    between atoms: C_13  and  N_14
REMARK    5  A    between atoms: N_17  and  C_18
REMARK                            x       y       z     vdW  Elec       q    Type
REMARK                         _______ _______ _______ _____ _____    ______ ____
ROOT
ATOM      1  C   UNL     1     -11.146  16.241  69.174  0.00  0.00    +0.074 C 
ENDROOT
BRANCH   1   2
ATOM      2  N   UNL     1      -9.709  16.482  69.080  0.00  0.00    -0.270 NA
ATOM      3  C   UNL     1      -8.985  15.238  69.080  0.00  0.00    +0.094 C 
ATOM      4  C   UNL     1      -9.010  14.684  67.682  0.00  0.00    +0.108 C 
ATOM      5  N   UNL     1     -10.032  15.351  66.886  0.00  0.00    -0.305 N 
ATOM      6  C   UNL     1      -9.822  16.775  66.653  0.00  0.00    +0.108 C 
ATOM      7  C   UNL     1      -9.367  17.353  67.988  0.00  0.00    +0.094 C 
BRANCH   5   8
ATOM      8  C   UNL     1     -10.844  14.567  66.004  0.00  0.00    +0.049 A 
ATOM      9  C   UNL     1     -10.289  14.018  64.869  0.00  0.00    +0.026 A 
ATOM     10  C   UNL     1     -10.853  12.957  64.184  0.00  0.00    +0.059 A 
ATOM     11 CL   UNL     1      -9.851  11.772  63.355  0.00  0.00    -0.082 Cl
ATOM     12  C   UNL     1     -12.203  12.736  64.424  0.00  0.00    +0.011 A 
ATOM     13  C   UNL     1     -12.824  13.378  65.488  0.00  0.00    +0.002 A 
ATOM     14  C   UNL     1     -12.106  14.176  66.370  0.00  0.00    +0.015 A 
ENDBRANCH   5   8
ENDBRANCH   1   2
BRANCH   1  15
ATOM     15  C   UNL     1     -11.369  15.639  70.557  0.00  0.00    +0.044 C 
BRANCH  15  16
ATOM     16  C   UNL     1     -12.698  14.899  70.479  0.00  0.00    +0.134 C 
BRANCH  16  19
ATOM     17  O   UNL     1     -13.793  13.223  72.677  0.00  0.00    -0.244 OA
ATOM     18  C   UNL     1     -13.173  12.766  71.670  0.00  0.00    +0.352 A 
ATOM     19  N   UNL     1     -12.532  13.488  70.725  0.00  0.00    -0.201 N 
ATOM     20  N   UNL     1     -12.090  12.641  69.804  0.00  0.00    -0.147 NA
ATOM     21  C   UNL     1     -11.962  11.460  70.416  0.00  0.00    +0.171 A 
ATOM     22  C   UNL     1     -11.130  10.357  70.317  0.00  0.00    +0.039 A 
ATOM     23  C   UNL     1     -11.685   9.133  70.634  0.00  0.00    +0.005 A 
ATOM     24  C   UNL     1     -12.733   9.131  71.529  0.00  0.00    +0.019 A 
ATOM     25  C   UNL     1     -13.314  10.319  71.944  0.00  0.00    +0.086 A 
ATOM     26  N   UNL     1     -12.840  11.481  71.445  0.00  0.00    -0.241 N 
ENDBRANCH  16  19
ENDBRANCH  15  16
ENDBRANCH   1  15
TORSDOF 5
ENDMDL
MODEL 2
REMARK VINA RESULT:      -7.0      2.464      4.088
REMARK  Name = 
REMARK  5 active torsions:
REMARK  status: ('A' for Active; 'I' for Inactive)
REMARK    1  A    between atoms: N_10  and  C_11
REMARK    2  A    between atoms: C_11  and  C_12
REMARK    3  A    between atoms: C_12  and  C_13
REMARK    4  A    between atoms: C_13  and  N_14
REMARK    5  A    between atoms: N_17  and  C_18
REMARK                            x       y       z     vdW  Elec       q    Type
REMARK                         _______ _______ _______ _____ _____    ______ ____
ROOT
ATOM      1  C   UNL     1     -11.593  14.443  67.576  0.00  0.00    +0.074 C 
ENDROOT
BRANCH   1   2
ATOM      2  N   UNL     1     -11.053  13.928  66.321  0.00  0.00    -0.270 NA
ATOM      3  C   UNL     1     -11.620  14.629  65.199  0.00  0.00    +0.094 C 
ATOM      4  C   UNL     1     -10.864  15.917  65.026  0.00  0.00    +0.108 C 
ATOM      5  N   UNL     1     -10.084  16.218  66.219  0.00  0.00    -0.305 N 
ATOM      6  C   UNL     1      -9.020  15.273  66.534  0.00  0.00    +0.108 C 
ATOM      7  C   UNL     1      -9.616  13.886  66.316  0.00  0.00    +0.094 C 
BRANCH   5   8
ATOM      8  C   UNL     1     -10.042  17.568  66.696  0.00  0.00    +0.049 A 
ATOM      9  C   UNL     1      -9.336  17.869  67.840  0.00  0.00    +0.026 A 
ATOM     10  C   UNL     1      -8.911  19.147  68.157  0.00  0.00    +0.059 A 
ATOM     11 CL   UNL     1      -7.413  19.416  69.039  0.00  0.00    -0.082 Cl
ATOM     12  C   UNL     1      -9.576  20.179  67.509  0.00  0.00    +0.011 A 
ATOM     13  C   UNL     1     -10.400  19.893  66.428  0.00  0.00    +0.002 A 
ATOM     14  C   UNL     1     -10.512  18.602  65.926  0.00  0.00    +0.015 A 
ENDBRANCH   5   8
ENDBRANCH   1   2
BRANCH   1  15
ATOM     15  C   UNL     1     -10.954  13.601  68.674  0.00  0.00    +0.044 C 
BRANCH  15  16
ATOM     16  C   UNL     1     -11.984  13.525  69.793  0.00  0.00    +0.134 C 
BRANCH  16  19
ATOM     17  O   UNL     1     -13.562  12.545  72.115  0.00  0.00    -0.244 OA
ATOM     18  C   UNL     1     -12.870  11.802  71.355  0.00  0.00    +0.352 A 
ATOM     19  N   UNL     1     -12.024  12.210  70.385  0.00  0.00    -0.201 N 
ATOM     20  N   UNL     1     -11.565  11.127  69.771  0.00  0.00    -0.147 NA
ATOM     21  C   UNL     1     -11.665  10.129  70.653  0.00  0.00    +0.171 A 
ATOM     22  C   UNL     1     -10.966   8.970  70.950  0.00  0.00    +0.039 A 
ATOM     23  C   UNL     1     -11.702   7.914  71.450  0.00  0.00    +0.005 A 
ATOM     24  C   UNL     1     -12.855   8.222  72.139  0.00  0.00    +0.019 A 
ATOM     25  C   UNL     1     -13.341   9.520  72.165  0.00  0.00    +0.086 A 
ATOM     26  N   UNL     1     -12.667  10.478  71.493  0.00  0.00    -0.241 N 
ENDBRANCH  16  19
ENDBRANCH  15  16
ENDBRANCH   1  15
TORSDOF 5
ENDMDL
MODEL 3
REMARK VINA RESULT:      -6.8      3.611      7.819
REMARK  Name = 
REMARK  5 active torsions:
REMARK  status: ('A' for Active; 'I' for Inactive)
REMARK    1  A    between atoms: N_10  and  C_11
REMARK    2  A    between atoms: C_11  and  C_12
REMARK    3  A    between atoms: C_12  and  C_13
REMARK    4  A    between atoms: C_13  and  N_14
REMARK    5  A    between atoms: N_17  and  C_18
REMARK                            x       y       z     vdW  Elec       q    Type
REMARK                         _______ _______ _______ _____ _____    ______ ____
ROOT
ATOM      1  C   UNL     1      -9.770  14.624  65.890  0.00  0.00    +0.074 C 
ENDROOT
BRANCH   1   2
ATOM      2  N   UNL     1     -10.450  13.817  64.880  0.00  0.00    -0.270 NA
ATOM      3  C   UNL     1     -10.156  12.419  65.066  0.00  0.00    +0.094 C 
ATOM      4  C   UNL     1     -11.066  11.891  66.140  0.00  0.00    +0.108 C 
ATOM      5  N   UNL     1     -11.667  12.988  66.888  0.00  0.00    -0.305 N 
ATOM      6  C   UNL     1     -12.555  13.859  66.128  0.00  0.00    +0.108 C 
ATOM      7  C   UNL     1     -11.855  14.108  64.796  0.00  0.00    +0.094 C 
BRANCH   5   8
ATOM      8  C   UNL     1     -11.777  12.876  68.312  0.00  0.00    +0.049 A 
ATOM      9  C   UNL     1     -11.932  14.010  69.078  0.00  0.00    +0.026 A 
ATOM     10  C   UNL     1     -12.431  13.994  70.368  0.00  0.00    +0.059 A 
ATOM     11 CL   UNL     1     -13.383  15.334  70.994  0.00  0.00    -0.082 Cl
ATOM     12  C   UNL     1     -12.372  12.769  71.019  0.00  0.00    +0.011 A 
ATOM     13  C   UNL     1     -12.089  11.619  70.292  0.00  0.00    +0.002 A 
ATOM     14  C   UNL     1     -11.943  11.653  68.911  0.00  0.00    +0.015 A 
ENDBRANCH   5   8
ENDBRANCH   1   2
BRANCH   1  15
ATOM     15  C   UNL     1     -10.043  16.073  65.505  0.00  0.00    +0.044 C 
BRANCH  15  16
ATOM     16  C   UNL     1      -9.969  16.869  66.801  0.00  0.00    +0.134 C 
BRANCH  16  19
ATOM     17  O   UNL     1      -9.547  19.180  68.624  0.00  0.00    -0.244 OA
ATOM     18  C   UNL     1      -8.800  18.901  67.638  0.00  0.00    +0.352 A 
ATOM     19  N   UNL     1      -9.028  17.958  66.699  0.00  0.00    -0.201 N 
ATOM     20  N   UNL     1      -7.972  17.928  65.896  0.00  0.00    -0.147 NA
ATOM     21  C   UNL     1      -7.404  19.133  65.983  0.00  0.00    +0.171 A 
ATOM     22  C   UNL     1      -6.698  19.979  65.143  0.00  0.00    +0.039 A 
ATOM     23  C   UNL     1      -5.752  20.792  65.736  0.00  0.00    +0.005 A 
ATOM     24  C   UNL     1      -5.958  21.139  67.054  0.00  0.00    +0.019 A 
ATOM     25  C   UNL     1      -6.971  20.548  67.793  0.00  0.00    +0.086 A 
ATOM     26  N   UNL     1      -7.747  19.616  67.199  0.00  0.00    -0.241 N 
ENDBRANCH  16  19
ENDBRANCH  15  16
ENDBRANCH   1  15
TORSDOF 5
ENDMDL
MODEL 4
REMARK VINA RESULT:      -6.8      3.269      6.968
REMARK  Name = 
REMARK  5 active torsions:
REMARK  status: ('A' for Active; 'I' for Inactive)
REMARK    1  A    between atoms: N_10  and  C_11
REMARK    2  A    between atoms: C_11  and  C_12
REMARK    3  A    between atoms: C_12  and  C_13
REMARK    4  A    between atoms: C_13  and  N_14
REMARK    5  A    between atoms: N_17  and  C_18
REMARK                            x       y       z     vdW  Elec       q    Type
REMARK                         _______ _______ _______ _____ _____    ______ ____
ROOT
ATOM      1  C   UNL     1     -11.434  11.949  65.759  0.00  0.00    +0.074 C 
ENDROOT
BRANCH   1   2
ATOM      2  N   UNL     1     -10.095  11.377  65.871  0.00  0.00    -0.270 NA
ATOM      3  C   UNL     1      -9.244  12.228  66.661  0.00  0.00    +0.094 C 
ATOM      4  C   UNL     1      -9.517  11.941  68.111  0.00  0.00    +0.108 C 
ATOM      5  N   UNL     1     -10.765  11.204  68.262  0.00  0.00    -0.305 N 
ATOM      6  C   UNL     1     -10.786   9.871  67.671  0.00  0.00    +0.108 C 
ATOM      7  C   UNL     1     -10.116  10.008  66.308  0.00  0.00    +0.094 C 
BRANCH   5   8
ATOM      8  C   UNL     1     -11.653  11.557  69.329  0.00  0.00    +0.049 A 
ATOM      9  C   UNL     1     -12.349  10.573  69.995  0.00  0.00    +0.026 A 
ATOM     10  C   UNL     1     -12.903  10.750  71.250  0.00  0.00    +0.059 A 
ATOM     11 CL   UNL     1     -13.009   9.420  72.396  0.00  0.00    -0.082 Cl
ATOM     12  C   UNL     1     -13.105  12.069  71.636  0.00  0.00    +0.011 A 
ATOM     13  C   UNL     1     -12.520  13.095  70.905  0.00  0.00    +0.002 A 
ATOM     14  C   UNL     1     -11.668  12.830  69.840  0.00  0.00    +0.015 A 
ENDBRANCH   5   8
ENDBRANCH   1   2
BRANCH   1  15
ATOM     15  C   UNL     1     -11.313  13.075  64.739  0.00  0.00    +0.044 C 
BRANCH  15  16
ATOM     16  C   UNL     1     -12.113  14.240  65.309  0.00  0.00    +0.134 C 
BRANCH  16  19
ATOM     17  O   UNL     1     -11.243  16.852  64.185  0.00  0.00    -0.244 OA
ATOM     18  C   UNL     1     -11.007  16.469  65.371  0.00  0.00    +0.352 A 
ATOM     19  N   UNL     1     -11.249  15.243  65.882  0.00  0.00    -0.201 N 
ATOM     20  N   UNL     1     -10.940  15.278  67.172  0.00  0.00    -0.147 NA
ATOM     21  C   UNL     1     -10.046  16.260  67.314  0.00  0.00    +0.171 A 
ATOM     22  C   UNL     1      -8.954  16.521  68.126  0.00  0.00    +0.039 A 
ATOM     23  C   UNL     1      -8.703  17.848  68.416  0.00  0.00    +0.005 A 
ATOM     24  C   UNL     1      -9.119  18.783  67.493  0.00  0.00    +0.019 A 
ATOM     25  C   UNL     1      -9.913  18.415  66.418  0.00  0.00    +0.086 A 
ATOM     26  N   UNL     1     -10.280  17.121  66.297  0.00  0.00    -0.241 N 
ENDBRANCH  16  19
ENDBRANCH  15  16
ENDBRANCH   1  15
TORSDOF 5
ENDMDL
MODEL 5
REMARK VINA RESULT:      -6.8      2.391      4.545
REMARK  Name = 
REMARK  5 active torsions:
REMARK  status: ('A' for Active; 'I' for Inactive)
REMARK    1  A    between atoms: N_10  and  C_11
REMARK    2  A    between atoms: C_11  and  C_12
REMARK    3  A    between atoms: C_12  and  C_13
REMARK    4  A    between atoms: C_13  and  N_14
REMARK    5  A    between atoms: N_17  and  C_18
REMARK                            x       y       z     vdW  Elec       q    Type
REMARK                         _______ _______ _______ _____ _____    ______ ____
ROOT
ATOM      1  C   UNL     1     -11.723  12.549  66.924  0.00  0.00    +0.074 C 
ENDROOT
BRANCH   1   2
ATOM      2  N   UNL     1     -11.785  12.463  65.467  0.00  0.00    -0.270 NA
ATOM      3  C   UNL     1     -12.739  13.406  64.944  0.00  0.00    +0.094 C 
ATOM      4  C   UNL     1     -12.070  14.750  64.863  0.00  0.00    +0.108 C 
ATOM      5  N   UNL     1     -10.848  14.762  65.656  0.00  0.00    -0.305 N 
ATOM      6  C   UNL     1      -9.793  13.861  65.205  0.00  0.00    +0.108 C 
ATOM      7  C   UNL     1     -10.487  12.549  64.855  0.00  0.00    +0.094 C 
BRANCH   5   8
ATOM      8  C   UNL     1     -10.548  15.917  66.449  0.00  0.00    +0.049 A 
ATOM      9  C   UNL     1     -10.200  17.098  65.834  0.00  0.00    +0.026 A 
ATOM     10  C   UNL     1     -10.278  18.331  66.456  0.00  0.00    +0.059 A 
ATOM     11 CL   UNL     1     -10.661  19.788  65.548  0.00  0.00    -0.082 Cl
ATOM     12  C   UNL     1     -10.311  18.302  67.844  0.00  0.00    +0.011 A 
ATOM     13  C   UNL     1     -10.533  17.098  68.500  0.00  0.00    +0.002 A 
ATOM     14  C   UNL     1     -10.804  15.931  67.797  0.00  0.00    +0.015 A 
ENDBRANCH   5   8
ENDBRANCH   1   2
BRANCH   1  15
ATOM     15  C   UNL     1     -11.297  11.164  67.397  0.00  0.00    +0.044 C 
BRANCH  15  16
ATOM     16  C   UNL     1     -10.685  11.366  68.777  0.00  0.00    +0.134 C 
BRANCH  16  19
ATOM     17  O   UNL     1     -12.857  10.629  70.668  0.00  0.00    -0.244 OA
ATOM     18  C   UNL     1     -12.386  11.799  70.541  0.00  0.00    +0.352 A 
ATOM     19  N   UNL     1     -11.509  12.215  69.601  0.00  0.00    -0.201 N 
ATOM     20  N   UNL     1     -11.207  13.479  69.865  0.00  0.00    -0.147 NA
ATOM     21  C   UNL     1     -12.239  13.973  70.554  0.00  0.00    +0.171 A 
ATOM     22  C   UNL     1     -12.871  15.198  70.686  0.00  0.00    +0.039 A 
ATOM     23  C   UNL     1     -13.440  15.472  71.915  0.00  0.00    +0.005 A 
ATOM     24  C   UNL     1     -13.852  14.396  72.671  0.00  0.00    +0.019 A 
ATOM     25  C   UNL     1     -13.540  13.100  72.289  0.00  0.00    +0.086 A 
ATOM     26  N   UNL     1     -12.814  12.912  71.166  0.00  0.00    -0.241 N 
ENDBRANCH  16  19
ENDBRANCH  15  16
ENDBRANCH   1  15
TORSDOF 5
ENDMDL
MODEL 6
REMARK VINA RESULT:      -6.7      3.555      7.539
REMARK  Name = 
REMARK  5 active torsions:
REMARK  status: ('A' for Active; 'I' for Inactive)
REMARK    1  A    between atoms: N_10  and  C_11
REMARK    2  A    between atoms: C_11  and  C_12
REMARK    3  A    between atoms: C_12  and  C_13
REMARK    4  A    between atoms: C_13  and  N_14
REMARK    5  A    between atoms: N_17  and  C_18
REMARK                            x       y       z     vdW  Elec       q    Type
REMARK                         _______ _______ _______ _____ _____    ______ ____
ROOT
ATOM      1  C   UNL     1     -11.131  12.174  66.846  0.00  0.00    +0.074 C 
ENDROOT
BRANCH   1   2
ATOM      2  N   UNL     1      -9.832  11.552  66.601  0.00  0.00    -0.270 NA
ATOM      3  C   UNL     1      -8.927  11.824  67.688  0.00  0.00    +0.094 C 
ATOM      4  C   UNL     1      -9.217  10.844  68.791  0.00  0.00    +0.108 C 
ATOM      5  N   UNL     1     -10.510  10.206  68.582  0.00  0.00    -0.305 N 
ATOM      6  C   UNL     1     -10.618   9.374  67.390  0.00  0.00    +0.108 C 
ATOM      7  C   UNL     1      -9.942  10.158  66.271  0.00  0.00    +0.094 C 
BRANCH   5   8
ATOM      8  C   UNL     1     -11.373  10.006  69.708  0.00  0.00    +0.049 A 
ATOM      9  C   UNL     1     -11.273   8.850  70.450  0.00  0.00    +0.026 A 
ATOM     10  C   UNL     1     -11.757   8.731  71.741  0.00  0.00    +0.059 A 
ATOM     11 CL   UNL     1     -10.959   7.702  72.922  0.00  0.00    -0.082 Cl
ATOM     12  C   UNL     1     -12.716   9.665  72.111  0.00  0.00    +0.011 A 
ATOM     13  C   UNL     1     -12.931  10.781  71.312  0.00  0.00    +0.002 A 
ATOM     14  C   UNL     1     -12.151  11.028  70.189  0.00  0.00    +0.015 A 
ENDBRANCH   5   8
ENDBRANCH   1   2
BRANCH   1  15
ATOM     15  C   UNL     1     -10.825  13.602  67.281  0.00  0.00    +0.044 C 
BRANCH  15  16
ATOM     16  C   UNL     1     -10.841  14.437  66.008  0.00  0.00    +0.134 C 
BRANCH  16  19
ATOM     17  O   UNL     1     -11.182  16.851  64.305  0.00  0.00    -0.244 OA
ATOM     18  C   UNL     1     -10.773  16.874  65.505  0.00  0.00    +0.352 A 
ATOM     19  N   UNL     1     -10.462  15.804  66.269  0.00  0.00    -0.201 N 
ATOM     20  N   UNL     1     -10.158  16.251  67.481  0.00  0.00    -0.147 NA
ATOM     21  C   UNL     1      -9.756  17.514  67.322  0.00  0.00    +0.171 A 
ATOM     22  C   UNL     1      -8.851  18.370  67.929  0.00  0.00    +0.039 A 
ATOM     23  C   UNL     1      -9.172  19.714  67.926  0.00  0.00    +0.005 A 
ATOM     24  C   UNL     1      -9.969  20.167  66.897  0.00  0.00    +0.019 A 
ATOM     25  C   UNL     1     -10.566  19.277  66.018  0.00  0.00    +0.086 A 
ATOM     26  N   UNL     1     -10.359  17.954  66.193  0.00  0.00    -0.241 N 
ENDBRANCH  16  19
ENDBRANCH  15  16
ENDBRANCH   1  15
TORSDOF 5
ENDMDL
MODEL 7
REMARK VINA RESULT:      -6.7      4.185      8.322
REMARK  Name = 
REMARK  5 active torsions:
REMARK  status: ('A' for Active; 'I' for Inactive)
REMARK    1  A    between atoms: N_10  and  C_11
REMARK    2  A    between atoms: C_11  and  C_12
REMARK    3  A    between atoms: C_12  and  C_13
REMARK    4  A    between atoms: C_13  and  N_14
REMARK    5  A    between atoms: N_17  and  C_18
REMARK                            x       y       z     vdW  Elec       q    Type
REMARK                         _______ _______ _______ _____ _____    ______ ____
ROOT
ATOM      1  C   UNL     1     -10.623  17.791  68.085  0.00  0.00    +0.074 C 
ENDROOT
BRANCH   1   2
ATOM      2  N   UNL     1      -9.709  16.790  67.541  0.00  0.00    -0.270 NA
ATOM      3  C   UNL     1      -8.774  16.358  68.547  0.00  0.00    +0.094 C 
ATOM      4  C   UNL     1      -9.450  15.317  69.395  0.00  0.00    +0.108 C 
ATOM      5  N   UNL     1     -10.892  15.345  69.186  0.00  0.00    -0.305 N 
ATOM      6  C   UNL     1     -11.343  14.994  67.845  0.00  0.00    +0.108 C 
ATOM      7  C   UNL     1     -10.398  15.712  66.887  0.00  0.00    +0.094 C 
BRANCH   5   8
ATOM      8  C   UNL     1     -11.758  15.209  70.319  0.00  0.00    +0.049 A 
ATOM      9  C   UNL     1     -12.538  14.082  70.454  0.00  0.00    +0.026 A 
ATOM     10  C   UNL     1     -13.088  13.677  71.657  0.00  0.00    +0.059 A 
ATOM     11 CL   UNL     1     -13.314  11.973  72.028  0.00  0.00    -0.082 Cl
ATOM     12  C   UNL     1     -13.185  14.659  72.634  0.00  0.00    +0.011 A 
ATOM     13  C   UNL     1     -12.511  15.862  72.466  0.00  0.00    +0.002 A 
ATOM     14  C   UNL     1     -11.673  16.076  71.379  0.00  0.00    +0.015 A 
ENDBRANCH   5   8
ENDBRANCH   1   2
BRANCH   1  15
ATOM     15  C   UNL     1     -10.604  18.946  67.091  0.00  0.00    +0.044 C 
BRANCH  15  16
ATOM     16  C   UNL     1      -9.651  19.981  67.674  0.00  0.00    +0.134 C 
BRANCH  16  19
ATOM     17  O   UNL     1      -6.946  19.936  68.906  0.00  0.00    -0.244 OA
ATOM     18  C   UNL     1      -7.172  19.767  67.670  0.00  0.00    +0.352 A 
ATOM     19  N   UNL     1      -8.356  19.923  67.041  0.00  0.00    -0.201 N 
ATOM     20  N   UNL     1      -8.187  19.568  65.773  0.00  0.00    -0.147 NA
ATOM     21  C   UNL     1      -6.889  19.735  65.510  0.00  0.00    +0.171 A 
ATOM     22  C   UNL     1      -6.117  20.089  64.415  0.00  0.00    +0.039 A 
ATOM     23  C   UNL     1      -4.853  19.537  64.344  0.00  0.00    +0.005 A 
ATOM     24  C   UNL     1      -4.248  19.196  65.535  0.00  0.00    +0.019 A 
ATOM     25  C   UNL     1      -4.956  19.237  66.727  0.00  0.00    +0.086 A 
ATOM     26  N   UNL     1      -6.253  19.609  66.698  0.00  0.00    -0.241 N 
ENDBRANCH  16  19
ENDBRANCH  15  16
ENDBRANCH   1  15
TORSDOF 5
ENDMDL
MODEL 8
REMARK VINA RESULT:      -6.7      3.404      6.301
REMARK  Name = 
REMARK  5 active torsions:
REMARK  status: ('A' for Active; 'I' for Inactive)
REMARK    1  A    between atoms: N_10  and  C_11
REMARK    2  A    between atoms: C_11  and  C_12
REMARK    3  A    between atoms: C_12  and  C_13
REMARK    4  A    between atoms: C_13  and  N_14
REMARK    5  A    between atoms: N_17  and  C_18
REMARK                            x       y       z     vdW  Elec       q    Type
REMARK                         _______ _______ _______ _____ _____    ______ ____
ROOT
ATOM      1  C   UNL     1     -11.562  14.772  66.900  0.00  0.00    +0.074 C 
ENDROOT
BRANCH   1   2
ATOM      2  N   UNL     1     -10.293  15.491  66.960  0.00  0.00    -0.270 NA
ATOM      3  C   UNL     1     -10.497  16.843  67.411  0.00  0.00    +0.094 C 
ATOM      4  C   UNL     1     -10.589  16.825  68.912  0.00  0.00    +0.108 C 
ATOM      5  N   UNL     1     -10.814  15.469  69.394  0.00  0.00    -0.305 N 
ATOM      6  C   UNL     1      -9.738  14.520  69.137  0.00  0.00    +0.108 C 
ATOM      7  C   UNL     1      -9.290  14.777  67.702  0.00  0.00    +0.094 C 
BRANCH   5   8
ATOM      8  C   UNL     1     -11.748  15.259  70.460  0.00  0.00    +0.049 A 
ATOM      9  C   UNL     1     -12.474  14.091  70.515  0.00  0.00    +0.026 A 
ATOM     10  C   UNL     1     -13.084  13.627  71.667  0.00  0.00    +0.059 A 
ATOM     11 CL   UNL     1     -13.243  11.904  71.984  0.00  0.00    -0.082 Cl
ATOM     12  C   UNL     1     -13.300  14.578  72.656  0.00  0.00    +0.011 A 
ATOM     13  C   UNL     1     -12.682  15.818  72.562  0.00  0.00    +0.002 A 
ATOM     14  C   UNL     1     -11.783  16.103  71.542  0.00  0.00    +0.015 A 
ENDBRANCH   5   8
ENDBRANCH   1   2
BRANCH   1  15
ATOM     15  C   UNL     1     -11.812  14.508  65.420  0.00  0.00    +0.044 C 
BRANCH  15  16
ATOM     16  C   UNL     1     -12.365  13.092  65.337  0.00  0.00    +0.134 C 
BRANCH  16  19
ATOM     17  O   UNL     1     -10.466  11.398  66.874  0.00  0.00    -0.244 OA
ATOM     18  C   UNL     1     -10.635  11.325  65.619  0.00  0.00    +0.352 A 
ATOM     19  N   UNL     1     -11.371  12.164  64.858  0.00  0.00    -0.201 N 
ATOM     20  N   UNL     1     -11.359  11.693  63.617  0.00  0.00    -0.147 NA
ATOM     21  C   UNL     1     -10.248  10.961  63.507  0.00  0.00    +0.171 A 
ATOM     22  C   UNL     1      -9.338  10.651  62.509  0.00  0.00    +0.039 A 
ATOM     23  C   UNL     1      -8.737   9.410  62.583  0.00  0.00    +0.005 A 
ATOM     24  C   UNL     1      -8.611   8.846  63.834  0.00  0.00    +0.019 A 
ATOM     25  C   UNL     1      -9.224   9.421  64.937  0.00  0.00    +0.086 A 
ATOM     26  N   UNL     1      -9.958  10.541  64.760  0.00  0.00    -0.241 N 
ENDBRANCH  16  19
ENDBRANCH  15  16
ENDBRANCH   1  15
TORSDOF 5
ENDMDL
MODEL 9
REMARK VINA RESULT:      -6.7      3.549      5.641
REMARK  Name = 
REMARK  5 active torsions:
REMARK  status: ('A' for Active; 'I' for Inactive)
REMARK    1  A    between atoms: N_10  and  C_11
REMARK    2  A    between atoms: C_11  and  C_12
REMARK    3  A    between atoms: C_12  and  C_13
REMARK    4  A    between atoms: C_13  and  N_14
REMARK    5  A    between atoms: N_17  and  C_18
REMARK                            x       y       z     vdW  Elec       q    Type
REMARK                         _______ _______ _______ _____ _____    ______ ____
ROOT
ATOM      1  C   UNL     1      -9.653  17.257  66.762  0.00  0.00    +0.074 C 
ENDROOT
BRANCH   1   2
ATOM      2  N   UNL     1     -10.443  18.213  67.532  0.00  0.00    -0.270 NA
ATOM      3  C   UNL     1      -9.770  18.558  68.757  0.00  0.00    +0.094 C 
ATOM      4  C   UNL     1      -8.747  19.615  68.445  0.00  0.00    +0.108 C 
ATOM      5  N   UNL     1      -8.503  19.683  67.010  0.00  0.00    -0.305 N 
ATOM      6  C   UNL     1      -9.639  20.099  66.196  0.00  0.00    +0.108 C 
ATOM      7  C   UNL     1     -10.846  19.351  66.751  0.00  0.00    +0.094 C 
BRANCH   5   8
ATOM      8  C   UNL     1      -7.159  19.841  66.543  0.00  0.00    +0.049 A 
ATOM      9  C   UNL     1      -6.742  19.172  65.414  0.00  0.00    +0.026 A 
ATOM     10  C   UNL     1      -5.635  19.545  64.673  0.00  0.00    +0.059 A 
ATOM     11 CL   UNL     1      -5.583  19.310  62.931  0.00  0.00    -0.082 Cl
ATOM     12  C   UNL     1      -4.714  20.348  65.333  0.00  0.00    +0.011 A 
ATOM     13  C   UNL     1      -5.060  20.937  66.543  0.00  0.00    +0.002 A 
ATOM     14  C   UNL     1      -6.339  20.806  67.072  0.00  0.00    +0.015 A 
ENDBRANCH   5   8
ENDBRANCH   1   2
BRANCH   1  15
ATOM     15  C   UNL     1      -9.730  15.946  67.536  0.00  0.00    +0.044 C 
BRANCH  15  16
ATOM     16  C   UNL     1     -11.117  15.380  67.259  0.00  0.00    +0.134 C 
BRANCH  16  19
ATOM     17  O   UNL     1     -11.799  12.667  68.265  0.00  0.00    -0.244 OA
ATOM     18  C   UNL     1     -11.937  13.734  68.936  0.00  0.00    +0.352 A 
ATOM     19  N   UNL     1     -11.783  14.996  68.479  0.00  0.00    -0.201 N 
ATOM     20  N   UNL     1     -11.931  15.817  69.511  0.00  0.00    -0.147 NA
ATOM     21  C   UNL     1     -12.681  15.162  70.402  0.00  0.00    +0.171 A 
ATOM     22  C   UNL     1     -13.631  15.489  71.356  0.00  0.00    +0.039 A 
ATOM     23  C   UNL     1     -13.689  14.680  72.474  0.00  0.00    +0.005 A 
ATOM     24  C   UNL     1     -13.277  13.373  72.327  0.00  0.00    +0.019 A 
ATOM     25  C   UNL     1     -12.664  12.950  71.158  0.00  0.00    +0.086 A 
ATOM     26  N   UNL     1     -12.468  13.847  70.167  0.00  0.00    -0.241 N 
ENDBRANCH  16  19
ENDBRANCH  15  16
ENDBRANCH   1  15
TORSDOF 5
ENDMDL
