MODEL 1
REMARK VINA RESULT:      -8.1      0.000      0.000
REMARK  Name = 
REMARK  8 active torsions:
REMARK  status: ('A' for Active; 'I' for Inactive)
REMARK    1  A    between atoms: O_2  and  C_3
REMARK    2  A    between atoms: C_4  and  O_5
REMARK    3  A    between atoms: O_5  and  C_6
REMARK    4  A    between atoms: C_6  and  C_7
REMARK    5  A    between atoms: C_7  and  C_8
REMARK    6  A    between atoms: C_8  and  N_9
REMARK    7  A    between atoms: C_20  and  N_21
REMARK    8  A    between atoms: C_22  and  C_24
REMARK                            x       y       z     vdW  Elec       q    Type
REMARK                         _______ _______ _______ _____ _____    ______ ____
ROOT
ATOM      1  C   UNL     1     -11.245  15.840  68.226  0.00  0.00    +0.190 A 
ATOM      2  C   UNL     1     -11.213  14.551  67.744  0.00  0.00    +0.124 A 
ATOM      3  N   UNL     1     -11.792  13.443  68.413  0.00  0.00    -0.208 NA
ATOM      4  C   UNL     1     -11.415  12.220  68.183  0.00  0.00    +0.237 A 
ATOM      5  N   UNL     1     -11.051  11.904  66.837  0.00  0.00    -0.281 N 
ATOM      6  C   UNL     1     -10.569  12.944  66.009  0.00  0.00    +0.143 A 
ATOM      7  N   UNL     1     -10.314  12.507  64.819  0.00  0.00    -0.252 NA
ATOM      8  C   UNL     1     -10.412  11.070  64.776  0.00  0.00    +0.152 C 
ATOM      9  C   UNL     1     -10.627  10.660  66.206  0.00  0.00    +0.137 C 
ATOM     10  C   UNL     1     -10.500  14.290  66.591  0.00  0.00    +0.055 A 
ATOM     11  C   UNL     1     -10.029  15.348  65.826  0.00  0.00    +0.008 A 
ATOM     12  C   UNL     1     -10.515  16.620  66.105  0.00  0.00    +0.040 A 
ATOM     13  C   UNL     1     -10.752  16.882  67.449  0.00  0.00    +0.174 A 
ENDROOT
BRANCH   4  14
ATOM     14  N   UNL     1     -11.840  11.150  69.032  0.00  0.00    -0.172 NA
ATOM     15  C   UNL     1     -11.044  10.495  69.793  0.00  0.00    +0.285 C 
ATOM     16  O   UNL     1      -9.677  10.632  69.570  0.00  0.00    -0.265 OA
BRANCH  15  17
ATOM     17  C   UNL     1     -11.507   9.544  70.813  0.00  0.00    +0.096 A 
ATOM     18  C   UNL     1     -12.422   9.916  71.791  0.00  0.00    +0.108 A 
ATOM     19  N   UNL     1     -13.447   9.089  72.110  0.00  0.00    -0.209 NA
ATOM     20  C   UNL     1     -13.500   7.816  71.650  0.00  0.00    +0.257 A 
ATOM     21  N   UNL     1     -14.756   7.193  71.356  0.00  0.00    -0.086 NA
ATOM     22  N   UNL     1     -12.344   7.346  71.118  0.00  0.00    -0.209 NA
ATOM     23  C   UNL     1     -11.409   8.174  70.594  0.00  0.00    +0.108 A 
ENDBRANCH  15  17
ENDBRANCH   4  14
BRANCH   1  25
ATOM     24  C   UNL     1     -11.691  15.986  70.650  0.00  0.00    +0.253 C 
ATOM     25  O   UNL     1     -12.076  16.108  69.304  0.00  0.00    -0.467 OA
ENDBRANCH   1  25
BRANCH  13  26
ATOM     26  O   UNL     1     -10.662  18.169  67.983  0.00  0.00    -0.472 OA
BRANCH  26  27
ATOM     27  C   UNL     1     -10.681  19.266  67.100  0.00  0.00    +0.207 C 
BRANCH  27  28
ATOM     28  C   UNL     1      -9.466  20.144  67.233  0.00  0.00    +0.065 C 
BRANCH  28  29
ATOM     29  C   UNL     1      -8.335  19.715  66.323  0.00  0.00    +0.076 C 
BRANCH  29  30
ATOM     30  N   UNL     1      -7.259  19.065  67.063  0.00  0.00    -0.268 NA
ATOM     31  C   UNL     1      -6.019  19.355  66.348  0.00  0.00    +0.105 C 
ATOM     32  C   UNL     1      -6.099  20.821  65.952  0.00  0.00    +0.159 C 
ATOM     33  O   UNL     1      -6.213  21.600  67.113  0.00  0.00    -0.351 OA
ATOM     34  C   UNL     1      -6.080  20.836  68.268  0.00  0.00    +0.159 C 
ATOM     35  C   UNL     1      -7.151  19.753  68.346  0.00  0.00    +0.105 C 
ENDBRANCH  29  30
ENDBRANCH  28  29
ENDBRANCH  27  28
ENDBRANCH  26  27
ENDBRANCH  13  26
TORSDOF 8
ENDMDL
MODEL 2
REMARK VINA RESULT:      -8.0      0.922      1.376
REMARK  Name = 
REMARK  8 active torsions:
REMARK  status: ('A' for Active; 'I' for Inactive)
REMARK    1  A    between atoms: O_2  and  C_3
REMARK    2  A    between atoms: C_4  and  O_5
REMARK    3  A    between atoms: O_5  and  C_6
REMARK    4  A    between atoms: C_6  and  C_7
REMARK    5  A    between atoms: C_7  and  C_8
REMARK    6  A    between atoms: C_8  and  N_9
REMARK    7  A    between atoms: C_20  and  N_21
REMARK    8  A    between atoms: C_22  and  C_24
REMARK                            x       y       z     vdW  Elec       q    Type
REMARK                         _______ _______ _______ _____ _____    ______ ____
ROOT
ATOM      1  C   UNL     1     -11.207  15.806  68.003  0.00  0.00    +0.190 A 
ATOM      2  C   UNL     1     -11.177  14.578  67.381  0.00  0.00    +0.124 A 
ATOM      3  N   UNL     1     -11.740  13.400  67.932  0.00  0.00    -0.208 NA
ATOM      4  C   UNL     1     -11.361  12.212  67.563  0.00  0.00    +0.237 A 
ATOM      5  N   UNL     1     -11.016  12.048  66.186  0.00  0.00    -0.281 N 
ATOM      6  C   UNL     1     -10.553  13.176  65.470  0.00  0.00    +0.143 A 
ATOM      7  N   UNL     1     -10.314  12.874  64.235  0.00  0.00    -0.252 NA
ATOM      8  C   UNL     1     -10.406  11.451  64.035  0.00  0.00    +0.152 C 
ATOM      9  C   UNL     1     -10.596  10.884  65.415  0.00  0.00    +0.137 C 
ATOM     10  C   UNL     1     -10.481  14.450  66.196  0.00  0.00    +0.055 A 
ATOM     11  C   UNL     1     -10.027  15.590  65.545  0.00  0.00    +0.008 A 
ATOM     12  C   UNL     1     -10.514  16.819  65.970  0.00  0.00    +0.040 A 
ATOM     13  C   UNL     1     -10.732  16.930  67.338  0.00  0.00    +0.174 A 
ENDROOT
BRANCH   4  14
ATOM     14  N   UNL     1     -11.767  11.052  68.296  0.00  0.00    -0.172 NA
ATOM     15  C   UNL     1     -10.994  10.416  69.096  0.00  0.00    +0.285 C 
ATOM     16  O   UNL     1      -9.630  10.686  69.028  0.00  0.00    -0.265 OA
BRANCH  15  17
ATOM     17  C   UNL     1     -11.466   9.359  70.001  0.00  0.00    +0.096 A 
ATOM     18  C   UNL     1     -10.965   8.064  69.927  0.00  0.00    +0.108 A 
ATOM     19  N   UNL     1     -10.650   7.394  71.063  0.00  0.00    -0.209 NA
ATOM     20  C   UNL     1     -10.993   7.869  72.284  0.00  0.00    +0.257 A 
ATOM     21  N   UNL     1     -10.154   7.642  73.423  0.00  0.00    -0.086 NA
ATOM     22  N   UNL     1     -11.910   8.868  72.278  0.00  0.00    -0.209 NA
ATOM     23  C   UNL     1     -12.071   9.685  71.209  0.00  0.00    +0.108 A 
ENDBRANCH  15  17
ENDBRANCH   4  14
BRANCH   1  25
ATOM     24  C   UNL     1     -11.560  15.931  70.443  0.00  0.00    +0.253 C 
ATOM     25  O   UNL     1     -12.023  15.948  69.117  0.00  0.00    -0.467 OA
ENDBRANCH   1  25
BRANCH  13  26
ATOM     26  O   UNL     1     -10.639  18.151  68.009  0.00  0.00    -0.472 OA
BRANCH  26  27
ATOM     27  C   UNL     1     -10.744  19.340  67.260  0.00  0.00    +0.207 C 
BRANCH  27  28
ATOM     28  C   UNL     1      -9.532  20.222  67.392  0.00  0.00    +0.065 C 
BRANCH  28  29
ATOM     29  C   UNL     1      -8.420  19.830  66.442  0.00  0.00    +0.076 C 
BRANCH  29  30
ATOM     30  N   UNL     1      -7.347  19.120  67.128  0.00  0.00    -0.268 NA
ATOM     31  C   UNL     1      -6.127  19.353  66.358  0.00  0.00    +0.105 C 
ATOM     32  C   UNL     1      -6.150  20.826  65.977  0.00  0.00    +0.159 C 
ATOM     33  O   UNL     1      -6.171  21.598  67.149  0.00  0.00    -0.351 OA
ATOM     34  C   UNL     1      -6.025  20.816  68.291  0.00  0.00    +0.159 C 
ATOM     35  C   UNL     1      -7.145  19.788  68.410  0.00  0.00    +0.105 C 
ENDBRANCH  29  30
ENDBRANCH  28  29
ENDBRANCH  27  28
ENDBRANCH  26  27
ENDBRANCH  13  26
TORSDOF 8
ENDMDL
MODEL 3
REMARK VINA RESULT:      -7.8      2.572     10.083
REMARK  Name = 
REMARK  8 active torsions:
REMARK  status: ('A' for Active; 'I' for Inactive)
REMARK    1  A    between atoms: O_2  and  C_3
REMARK    2  A    between atoms: C_4  and  O_5
REMARK    3  A    between atoms: O_5  and  C_6
REMARK    4  A    between atoms: C_6  and  C_7
REMARK    5  A    between atoms: C_7  and  C_8
REMARK    6  A    between atoms: C_8  and  N_9
REMARK    7  A    between atoms: C_20  and  N_21
REMARK    8  A    between atoms: C_22  and  C_24
REMARK                            x       y       z     vdW  Elec       q    Type
REMARK                         _______ _______ _______ _____ _____    ______ ____
ROOT
ATOM      1  C   UNL     1     -11.256  11.985  68.126  0.00  0.00    +0.190 A 
ATOM      2  C   UNL     1     -11.664  13.009  68.950  0.00  0.00    +0.124 A 
ATOM      3  N   UNL     1     -11.619  14.380  68.589  0.00  0.00    -0.208 NA
ATOM      4  C   UNL     1     -11.606  15.330  69.476  0.00  0.00    +0.237 A 
ATOM      5  N   UNL     1     -12.376  15.113  70.661  0.00  0.00    -0.281 N 
ATOM      6  C   UNL     1     -12.608  13.781  71.076  0.00  0.00    +0.143 A 
ATOM      7  N   UNL     1     -13.343  13.751  72.140  0.00  0.00    -0.252 NA
ATOM      8  C   UNL     1     -13.522  15.078  72.670  0.00  0.00    +0.152 C 
ATOM      9  C   UNL     1     -12.630  15.947  71.829  0.00  0.00    +0.137 C 
ATOM     10  C   UNL     1     -12.055  12.709  70.240  0.00  0.00    +0.055 A 
ATOM     11  C   UNL     1     -12.246  11.383  70.603  0.00  0.00    +0.008 A 
ATOM     12  C   UNL     1     -12.293  10.431  69.592  0.00  0.00    +0.040 A 
ATOM     13  C   UNL     1     -11.442  10.665  68.519  0.00  0.00    +0.174 A 
ENDROOT
BRANCH   4  14
ATOM     14  N   UNL     1     -11.322  16.681  69.099  0.00  0.00    -0.172 NA
ATOM     15  C   UNL     1     -10.146  17.102  68.815  0.00  0.00    +0.285 C 
ATOM     16  O   UNL     1      -9.068  16.294  69.168  0.00  0.00    -0.265 OA
BRANCH  15  17
ATOM     17  C   UNL     1      -9.883  18.423  68.230  0.00  0.00    +0.096 A 
ATOM     18  C   UNL     1      -8.858  19.235  68.703  0.00  0.00    +0.108 A 
ATOM     19  N   UNL     1      -8.053  19.889  67.829  0.00  0.00    -0.209 NA
ATOM     20  C   UNL     1      -8.337  19.939  66.505  0.00  0.00    +0.257 A 
ATOM     21  N   UNL     1      -7.288  19.959  65.530  0.00  0.00    -0.086 NA
ATOM     22  N   UNL     1      -9.597  19.564  66.171  0.00  0.00    -0.209 NA
ATOM     23  C   UNL     1     -10.325  18.726  66.947  0.00  0.00    +0.108 A 
ENDBRANCH  15  17
ENDBRANCH   4  14
BRANCH   1  25
ATOM     24  C   UNL     1     -11.989  12.397  65.806  0.00  0.00    +0.253 C 
ATOM     25  O   UNL     1     -10.999  12.287  66.796  0.00  0.00    -0.467 OA
ENDBRANCH   1  25
BRANCH  13  26
ATOM     26  O   UNL     1     -10.914   9.626  67.749  0.00  0.00    -0.472 OA
BRANCH  26  27
ATOM     27  C   UNL     1      -9.769   8.955  68.221  0.00  0.00    +0.207 C 
BRANCH  27  28
ATOM     28  C   UNL     1     -10.076   7.580  68.751  0.00  0.00    +0.065 C 
BRANCH  28  29
ATOM     29  C   UNL     1      -9.741   7.434  70.220  0.00  0.00    +0.076 C 
BRANCH  29  30
ATOM     30  N   UNL     1     -10.494   6.351  70.842  0.00  0.00    -0.268 NA
ATOM     31  C   UNL     1     -10.238   6.429  72.279  0.00  0.00    +0.105 C 
ATOM     32  C   UNL     1     -10.302   7.907  72.634  0.00  0.00    +0.159 C 
ATOM     33  O   UNL     1     -11.578   8.396  72.314  0.00  0.00    -0.351 OA
ATOM     34  C   UNL     1     -12.439   7.380  71.908  0.00  0.00    +0.159 C 
ATOM     35  C   UNL     1     -11.909   6.662  70.671  0.00  0.00    +0.105 C 
ENDBRANCH  29  30
ENDBRANCH  28  29
ENDBRANCH  27  28
ENDBRANCH  26  27
ENDBRANCH  13  26
TORSDOF 8
ENDMDL
MODEL 4
REMARK VINA RESULT:      -7.5      1.554      2.047
REMARK  Name = 
REMARK  8 active torsions:
REMARK  status: ('A' for Active; 'I' for Inactive)
REMARK    1  A    between atoms: O_2  and  C_3
REMARK    2  A    between atoms: C_4  and  O_5
REMARK    3  A    between atoms: O_5  and  C_6
REMARK    4  A    between atoms: C_6  and  C_7
REMARK    5  A    between atoms: C_7  and  C_8
REMARK    6  A    between atoms: C_8  and  N_9
REMARK    7  A    between atoms: C_20  and  N_21
REMARK    8  A    between atoms: C_22  and  C_24
REMARK                            x       y       z     vdW  Elec       q    Type
REMARK                         _______ _______ _______ _____ _____    ______ ____
ROOT
ATOM      1  C   UNL     1     -11.115  16.096  68.246  0.00  0.00    +0.190 A 
ATOM      2  C   UNL     1     -11.147  14.906  67.556  0.00  0.00    +0.124 A 
ATOM      3  N   UNL     1     -11.731  13.716  68.060  0.00  0.00    -0.208 NA
ATOM      4  C   UNL     1     -11.404  12.540  67.611  0.00  0.00    +0.237 A 
ATOM      5  N   UNL     1     -11.114  12.445  66.214  0.00  0.00    -0.281 N 
ATOM      6  C   UNL     1     -10.638  13.597  65.547  0.00  0.00    +0.143 A 
ATOM      7  N   UNL     1     -10.453  13.359  64.289  0.00  0.00    -0.252 NA
ATOM      8  C   UNL     1     -10.599  11.953  64.013  0.00  0.00    +0.152 C 
ATOM      9  C   UNL     1     -10.761  11.314  65.364  0.00  0.00    +0.137 C 
ATOM     10  C   UNL     1     -10.498  14.824  66.340  0.00  0.00    +0.055 A 
ATOM     11  C   UNL     1     -10.029  15.984  65.738  0.00  0.00    +0.008 A 
ATOM     12  C   UNL     1     -10.459  17.202  66.249  0.00  0.00    +0.040 A 
ATOM     13  C   UNL     1     -10.625  17.241  67.629  0.00  0.00    +0.174 A 
ENDROOT
BRANCH   4  14
ATOM     14  N   UNL     1     -11.824  11.353  68.291  0.00  0.00    -0.172 NA
ATOM     15  C   UNL     1     -11.079  10.709  69.111  0.00  0.00    +0.285 C 
ATOM     16  O   UNL     1      -9.719  11.005  69.117  0.00  0.00    -0.265 OA
BRANCH  15  17
ATOM     17  C   UNL     1     -11.574   9.619  69.963  0.00  0.00    +0.096 A 
ATOM     18  C   UNL     1     -11.113   8.316  69.814  0.00  0.00    +0.108 A 
ATOM     19  N   UNL     1     -10.807   7.577  70.909  0.00  0.00    -0.209 NA
ATOM     20  C   UNL     1     -11.125   7.995  72.158  0.00  0.00    +0.257 A 
ATOM     21  N   UNL     1     -10.282   7.682  73.273  0.00  0.00    -0.086 NA
ATOM     22  N   UNL     1     -12.011   9.020  72.215  0.00  0.00    -0.209 NA
ATOM     23  C   UNL     1     -12.158   9.898  71.194  0.00  0.00    +0.108 A 
ENDBRANCH  15  17
ENDBRANCH   4  14
BRANCH   1  25
ATOM     24  C   UNL     1     -11.409  15.949  70.692  0.00  0.00    +0.253 C 
ATOM     25  O   UNL     1     -11.886  16.200  69.395  0.00  0.00    -0.467 OA
ENDBRANCH   1  25
BRANCH  13  26
ATOM     26  O   UNL     1     -10.468  18.418  68.363  0.00  0.00    -0.472 OA
BRANCH  26  27
ATOM     27  C   UNL     1      -9.306  19.187  68.162  0.00  0.00    +0.207 C 
BRANCH  27  28
ATOM     28  C   UNL     1      -8.060  18.502  68.655  0.00  0.00    +0.065 C 
BRANCH  28  29
ATOM     29  C   UNL     1      -6.980  19.480  69.063  0.00  0.00    +0.076 C 
BRANCH  29  30
ATOM     30  N   UNL     1      -5.742  18.800  69.428  0.00  0.00    -0.268 NA
ATOM     31  C   UNL     1      -4.646  19.587  68.868  0.00  0.00    +0.105 C 
ATOM     32  C   UNL     1      -5.000  21.042  69.133  0.00  0.00    +0.159 C 
ATOM     33  O   UNL     1      -5.114  21.237  70.518  0.00  0.00    -0.351 OA
ATOM     34  C   UNL     1      -4.740  20.105  71.236  0.00  0.00    +0.159 C 
ATOM     35  C   UNL     1      -5.610  18.905  70.878  0.00  0.00    +0.105 C 
ENDBRANCH  29  30
ENDBRANCH  28  29
ENDBRANCH  27  28
ENDBRANCH  26  27
ENDBRANCH  13  26
TORSDOF 8
ENDMDL
MODEL 5
REMARK VINA RESULT:      -7.4      3.006      8.533
REMARK  Name = 
REMARK  8 active torsions:
REMARK  status: ('A' for Active; 'I' for Inactive)
REMARK    1  A    between atoms: O_2  and  C_3
REMARK    2  A    between atoms: C_4  and  O_5
REMARK    3  A    between atoms: O_5  and  C_6
REMARK    4  A    between atoms: C_6  and  C_7
REMARK    5  A    between atoms: C_7  and  C_8
REMARK    6  A    between atoms: C_8  and  N_9
REMARK    7  A    between atoms: C_20  and  N_21
REMARK    8  A    between atoms: C_22  and  C_24
REMARK                            x       y       z     vdW  Elec       q    Type
REMARK                         _______ _______ _______ _____ _____    ______ ____
ROOT
ATOM      1  C   UNL     1     -11.277  12.011  68.030  0.00  0.00    +0.190 A 
ATOM      2  C   UNL     1     -11.662  13.024  68.878  0.00  0.00    +0.124 A 
ATOM      3  N   UNL     1     -11.625  14.399  68.535  0.00  0.00    -0.208 NA
ATOM      4  C   UNL     1     -11.588  15.338  69.434  0.00  0.00    +0.237 A 
ATOM      5  N   UNL     1     -12.329  15.105  70.634  0.00  0.00    -0.281 N 
ATOM      6  C   UNL     1     -12.552  13.768  71.037  0.00  0.00    +0.143 A 
ATOM      7  N   UNL     1     -13.261  13.723  72.118  0.00  0.00    -0.252 NA
ATOM      8  C   UNL     1     -13.424  15.044  72.671  0.00  0.00    +0.152 C 
ATOM      9  C   UNL     1     -12.552  15.923  71.820  0.00  0.00    +0.137 C 
ATOM     10  C   UNL     1     -12.022  12.706  70.173  0.00  0.00    +0.055 A 
ATOM     11  C   UNL     1     -12.206  11.376  70.522  0.00  0.00    +0.008 A 
ATOM     12  C   UNL     1     -12.280  10.438  69.500  0.00  0.00    +0.040 A 
ATOM     13  C   UNL     1     -11.456  10.686  68.408  0.00  0.00    +0.174 A 
ENDROOT
BRANCH   4  14
ATOM     14  N   UNL     1     -11.311  16.693  69.069  0.00  0.00    -0.172 NA
ATOM     15  C   UNL     1     -10.137  17.122  68.789  0.00  0.00    +0.285 C 
ATOM     16  O   UNL     1      -9.055  16.318  69.136  0.00  0.00    -0.265 OA
BRANCH  15  17
ATOM     17  C   UNL     1      -9.881  18.450  68.216  0.00  0.00    +0.096 A 
ATOM     18  C   UNL     1      -8.850  19.257  68.685  0.00  0.00    +0.108 A 
ATOM     19  N   UNL     1      -8.056  19.920  67.808  0.00  0.00    -0.209 NA
ATOM     20  C   UNL     1      -8.356  19.985  66.488  0.00  0.00    +0.257 A 
ATOM     21  N   UNL     1      -7.320  20.016  65.500  0.00  0.00    -0.086 NA
ATOM     22  N   UNL     1      -9.621  19.615  66.166  0.00  0.00    -0.209 NA
ATOM     23  C   UNL     1     -10.339  18.767  66.942  0.00  0.00    +0.108 A 
ENDBRANCH  15  17
ENDBRANCH   4  14
BRANCH   1  25
ATOM     24  C   UNL     1     -12.065  12.440  65.731  0.00  0.00    +0.253 C 
ATOM     25  O   UNL     1     -11.053  12.331  66.698  0.00  0.00    -0.467 OA
ENDBRANCH   1  25
BRANCH  13  26
ATOM     26  O   UNL     1     -10.948   9.657  67.612  0.00  0.00    -0.472 OA
BRANCH  26  27
ATOM     27  C   UNL     1      -9.594   9.299  67.757  0.00  0.00    +0.207 C 
BRANCH  27  28
ATOM     28  C   UNL     1      -8.794   9.522  66.503  0.00  0.00    +0.065 C 
BRANCH  28  29
ATOM     29  C   UNL     1      -7.911  10.749  66.585  0.00  0.00    +0.076 C 
BRANCH  29  30
ATOM     30  N   UNL     1      -7.632  11.124  67.966  0.00  0.00    -0.268 NA
ATOM     31  C   UNL     1      -6.247  10.743  68.236  0.00  0.00    +0.105 C 
ATOM     32  C   UNL     1      -5.456  11.149  67.001  0.00  0.00    +0.159 C 
ATOM     33  O   UNL     1      -5.579  12.535  66.818  0.00  0.00    -0.351 OA
ATOM     34  C   UNL     1      -6.255  13.142  67.872  0.00  0.00    +0.159 C 
ATOM     35  C   UNL     1      -7.665  12.582  68.026  0.00  0.00    +0.105 C 
ENDBRANCH  29  30
ENDBRANCH  28  29
ENDBRANCH  27  28
ENDBRANCH  26  27
ENDBRANCH  13  26
TORSDOF 8
ENDMDL
MODEL 6
REMARK VINA RESULT:      -7.3      2.679     10.646
REMARK  Name = 
REMARK  8 active torsions:
REMARK  status: ('A' for Active; 'I' for Inactive)
REMARK    1  A    between atoms: O_2  and  C_3
REMARK    2  A    between atoms: C_4  and  O_5
REMARK    3  A    between atoms: O_5  and  C_6
REMARK    4  A    between atoms: C_6  and  C_7
REMARK    5  A    between atoms: C_7  and  C_8
REMARK    6  A    between atoms: C_8  and  N_9
REMARK    7  A    between atoms: C_20  and  N_21
REMARK    8  A    between atoms: C_22  and  C_24
REMARK                            x       y       z     vdW  Elec       q    Type
REMARK                         _______ _______ _______ _____ _____    ______ ____
ROOT
ATOM      1  C   UNL     1     -11.290  10.409  69.291  0.00  0.00    +0.190 A 
ATOM      2  C   UNL     1     -11.821  11.632  69.633  0.00  0.00    +0.124 A 
ATOM      3  N   UNL     1     -11.792  12.770  68.788  0.00  0.00    -0.208 NA
ATOM      4  C   UNL     1     -11.907  13.980  69.251  0.00  0.00    +0.237 A 
ATOM      5  N   UNL     1     -12.788  14.160  70.362  0.00  0.00    -0.281 N 
ATOM      6  C   UNL     1     -13.011  13.064  71.227  0.00  0.00    +0.143 A 
ATOM      7  N   UNL     1     -13.852  13.375  72.160  0.00  0.00    -0.252 NA
ATOM      8  C   UNL     1     -14.136  14.787  72.135  0.00  0.00    +0.152 C 
ATOM      9  C   UNL     1     -13.195  15.346  71.105  0.00  0.00    +0.137 C 
ATOM     10  C   UNL     1     -12.333  11.803  70.904  0.00  0.00    +0.055 A 
ATOM     11  C   UNL     1     -12.510  10.695  71.722  0.00  0.00    +0.008 A 
ATOM     12  C   UNL     1     -12.414   9.436  71.143  0.00  0.00    +0.040 A 
ATOM     13  C   UNL     1     -11.465   9.318  70.134  0.00  0.00    +0.174 A 
ENDROOT
BRANCH   4  14
ATOM     14  N   UNL     1     -11.638  15.112  68.418  0.00  0.00    -0.172 NA
ATOM     15  C   UNL     1     -10.484  15.663  68.327  0.00  0.00    +0.285 C 
ATOM     16  O   UNL     1      -9.534  15.334  69.290  0.00  0.00    -0.265 OA
BRANCH  15  17
ATOM     17  C   UNL     1     -10.156  16.685  67.324  0.00  0.00    +0.096 A 
ATOM     18  C   UNL     1     -10.404  18.033  67.555  0.00  0.00    +0.108 A 
ATOM     19  N   UNL     1      -9.471  18.960  67.222  0.00  0.00    -0.209 NA
ATOM     20  C   UNL     1      -8.382  18.636  66.484  0.00  0.00    +0.257 A 
ATOM     21  N   UNL     1      -7.129  19.296  66.695  0.00  0.00    -0.086 NA
ATOM     22  N   UNL     1      -8.443  17.430  65.865  0.00  0.00    -0.209 NA
ATOM     23  C   UNL     1      -9.218  16.423  66.333  0.00  0.00    +0.108 A 
ENDBRANCH  15  17
ENDBRANCH   4  14
BRANCH   1  25
ATOM     24  C   UNL     1      -9.583  10.303  67.511  0.00  0.00    +0.253 C 
ATOM     25  O   UNL     1     -10.907  10.215  67.971  0.00  0.00    -0.467 OA
ENDBRANCH   1  25
BRANCH  13  26
ATOM     26  O   UNL     1     -10.820   8.111  69.858  0.00  0.00    -0.472 OA
BRANCH  26  27
ATOM     27  C   UNL     1     -11.578   6.924  69.877  0.00  0.00    +0.207 C 
BRANCH  27  28
ATOM     28  C   UNL     1     -10.749   5.708  70.190  0.00  0.00    +0.065 C 
BRANCH  28  29
ATOM     29  C   UNL     1     -10.116   5.771  71.564  0.00  0.00    +0.076 C 
BRANCH  29  30
ATOM     30  N   UNL     1     -11.111   5.986  72.609  0.00  0.00    -0.268 NA
ATOM     31  C   UNL     1     -11.186   4.748  73.382  0.00  0.00    +0.105 C 
ATOM     32  C   UNL     1      -9.748   4.288  73.571  0.00  0.00    +0.159 C 
ATOM     33  O   UNL     1      -9.039   5.281  74.263  0.00  0.00    -0.351 OA
ATOM     34  C   UNL     1      -9.871   6.312  74.690  0.00  0.00    +0.159 C 
ATOM     35  C   UNL     1     -10.566   6.992  73.515  0.00  0.00    +0.105 C 
ENDBRANCH  29  30
ENDBRANCH  28  29
ENDBRANCH  27  28
ENDBRANCH  26  27
ENDBRANCH  13  26
TORSDOF 8
ENDMDL
MODEL 7
REMARK VINA RESULT:      -7.2      4.555      8.515
REMARK  Name = 
REMARK  8 active torsions:
REMARK  status: ('A' for Active; 'I' for Inactive)
REMARK    1  A    between atoms: O_2  and  C_3
REMARK    2  A    between atoms: C_4  and  O_5
REMARK    3  A    between atoms: O_5  and  C_6
REMARK    4  A    between atoms: C_6  and  C_7
REMARK    5  A    between atoms: C_7  and  C_8
REMARK    6  A    between atoms: C_8  and  N_9
REMARK    7  A    between atoms: C_20  and  N_21
REMARK    8  A    between atoms: C_22  and  C_24
REMARK                            x       y       z     vdW  Elec       q    Type
REMARK                         _______ _______ _______ _____ _____    ______ ____
ROOT
ATOM      1  C   UNL     1      -8.575  10.545  68.042  0.00  0.00    +0.190 A 
ATOM      2  C   UNL     1      -9.487  11.393  67.455  0.00  0.00    +0.124 A 
ATOM      3  N   UNL     1     -10.017  12.545  68.089  0.00  0.00    -0.208 NA
ATOM      4  C   UNL     1     -11.141  13.085  67.719  0.00  0.00    +0.237 A 
ATOM      5  N   UNL     1     -11.434  13.060  66.320  0.00  0.00    -0.281 N 
ATOM      6  C   UNL     1     -10.868  12.030  65.533  0.00  0.00    +0.143 A 
ATOM      7  N   UNL     1     -11.201  12.163  64.290  0.00  0.00    -0.252 NA
ATOM      8  C   UNL     1     -12.196  13.195  64.140  0.00  0.00    +0.152 C 
ATOM      9  C   UNL     1     -12.550  13.590  65.546  0.00  0.00    +0.137 C 
ATOM     10  C   UNL     1      -9.995  11.066  66.213  0.00  0.00    +0.055 A 
ATOM     11  C   UNL     1      -9.417  10.031  65.491  0.00  0.00    +0.008 A 
ATOM     12  C   UNL     1      -8.193   9.538  65.925  0.00  0.00    +0.040 A 
ATOM     13  C   UNL     1      -8.023   9.505  67.304  0.00  0.00    +0.174 A 
ENDROOT
BRANCH   4  14
ATOM     14  N   UNL     1     -11.768  14.092  68.519  0.00  0.00    -0.172 NA
ATOM     15  C   UNL     1     -12.145  13.899  69.728  0.00  0.00    +0.285 C 
ATOM     16  O   UNL     1     -12.213  12.585  70.182  0.00  0.00    -0.265 OA
BRANCH  15  17
ATOM     17  C   UNL     1     -12.595  14.981  70.613  0.00  0.00    +0.096 A 
ATOM     18  C   UNL     1     -13.789  14.891  71.321  0.00  0.00    +0.108 A 
ATOM     19  N   UNL     1     -13.837  15.274  72.621  0.00  0.00    -0.209 NA
ATOM     20  C   UNL     1     -12.807  15.933  73.204  0.00  0.00    +0.257 A 
ATOM     21  N   UNL     1     -12.499  15.735  74.589  0.00  0.00    -0.086 NA
ATOM     22  N   UNL     1     -11.884  16.436  72.346  0.00  0.00    -0.209 NA
ATOM     23  C   UNL     1     -11.685  15.904  71.116  0.00  0.00    +0.108 A 
ENDBRANCH  15  17
ENDBRANCH   4  14
BRANCH   1  25
ATOM     24  C   UNL     1      -6.766  11.671  69.287  0.00  0.00    +0.253 C 
ATOM     25  O   UNL     1      -7.974  10.957  69.223  0.00  0.00    -0.467 OA
ENDBRANCH   1  25
BRANCH  13  26
ATOM     26  O   UNL     1      -7.200   8.565  67.929  0.00  0.00    -0.472 OA
BRANCH  26  27
ATOM     27  C   UNL     1      -7.796   7.432  68.515  0.00  0.00    +0.207 C 
BRANCH  27  28
ATOM     28  C   UNL     1      -7.677   7.420  70.015  0.00  0.00    +0.065 C 
BRANCH  28  29
ATOM     29  C   UNL     1      -9.003   7.175  70.703  0.00  0.00    +0.076 C 
BRANCH  29  30
ATOM     30  N   UNL     1      -9.715   8.421  70.966  0.00  0.00    -0.268 NA
ATOM     31  C   UNL     1     -10.972   8.355  70.223  0.00  0.00    +0.105 C 
ATOM     32  C   UNL     1     -11.499   6.942  70.423  0.00  0.00    +0.159 C 
ATOM     33  O   UNL     1     -11.703   6.722  71.794  0.00  0.00    -0.351 OA
ATOM     34  C   UNL     1     -11.503   7.878  72.542  0.00  0.00    +0.159 C 
ATOM     35  C   UNL     1     -10.083   8.411  72.378  0.00  0.00    +0.105 C 
ENDBRANCH  29  30
ENDBRANCH  28  29
ENDBRANCH  27  28
ENDBRANCH  26  27
ENDBRANCH  13  26
TORSDOF 8
ENDMDL
MODEL 8
REMARK VINA RESULT:      -7.1      2.909      9.023
REMARK  Name = 
REMARK  8 active torsions:
REMARK  status: ('A' for Active; 'I' for Inactive)
REMARK    1  A    between atoms: O_2  and  C_3
REMARK    2  A    between atoms: C_4  and  O_5
REMARK    3  A    between atoms: O_5  and  C_6
REMARK    4  A    between atoms: C_6  and  C_7
REMARK    5  A    between atoms: C_7  and  C_8
REMARK    6  A    between atoms: C_8  and  N_9
REMARK    7  A    between atoms: C_20  and  N_21
REMARK    8  A    between atoms: C_22  and  C_24
REMARK                            x       y       z     vdW  Elec       q    Type
REMARK                         _______ _______ _______ _____ _____    ______ ____
ROOT
ATOM      1  C   UNL     1     -11.345  11.749  68.251  0.00  0.00    +0.190 A 
ATOM      2  C   UNL     1     -11.762  12.811  69.021  0.00  0.00    +0.124 A 
ATOM      3  N   UNL     1     -11.777  14.156  68.572  0.00  0.00    -0.208 NA
ATOM      4  C   UNL     1     -11.767  15.162  69.396  0.00  0.00    +0.237 A 
ATOM      5  N   UNL     1     -12.491  14.997  70.617  0.00  0.00    -0.281 N 
ATOM      6  C   UNL     1     -12.664  13.688  71.125  0.00  0.00    +0.143 A 
ATOM      7  N   UNL     1     -13.363  13.703  72.213  0.00  0.00    -0.252 NA
ATOM      8  C   UNL     1     -13.570  15.056  72.663  0.00  0.00    +0.152 C 
ATOM      9  C   UNL     1     -12.736  15.897  71.738  0.00  0.00    +0.137 C 
ATOM     10  C   UNL     1     -12.101  12.583  70.340  0.00  0.00    +0.055 A 
ATOM     11  C   UNL     1     -12.235  11.277  70.794  0.00  0.00    +0.008 A 
ATOM     12  C   UNL     1     -12.281  10.261  69.848  0.00  0.00    +0.040 A 
ATOM     13  C   UNL     1     -11.474  10.452  68.733  0.00  0.00    +0.174 A 
ENDROOT
BRANCH   4  14
ATOM     14  N   UNL     1     -11.542  16.494  68.924  0.00  0.00    -0.172 NA
ATOM     15  C   UNL     1     -10.376  16.988  68.737  0.00  0.00    +0.285 C 
ATOM     16  O   UNL     1      -9.291  16.312  69.289  0.00  0.00    -0.265 OA
BRANCH  15  17
ATOM     17  C   UNL     1     -10.144  18.271  68.060  0.00  0.00    +0.096 A 
ATOM     18  C   UNL     1      -9.204  19.181  68.531  0.00  0.00    +0.108 A 
ATOM     19  N   UNL     1      -8.374  19.809  67.662  0.00  0.00    -0.209 NA
ATOM     20  C   UNL     1      -8.561  19.733  66.322  0.00  0.00    +0.257 A 
ATOM     21  N   UNL     1      -7.446  19.738  65.424  0.00  0.00    -0.086 NA
ATOM     22  N   UNL     1      -9.770  19.255  65.935  0.00  0.00    -0.209 NA
ATOM     23  C   UNL     1     -10.506  18.440  66.728  0.00  0.00    +0.108 A 
ENDBRANCH  15  17
ENDBRANCH   4  14
BRANCH   1  25
ATOM     24  C   UNL     1      -9.907  12.327  66.330  0.00  0.00    +0.253 C 
ATOM     25  O   UNL     1     -11.142  11.972  66.896  0.00  0.00    -0.467 OA
ENDBRANCH   1  25
BRANCH  13  26
ATOM     26  O   UNL     1     -10.935   9.383  68.013  0.00  0.00    -0.472 OA
BRANCH  26  27
ATOM     27  C   UNL     1      -9.548   9.151  68.091  0.00  0.00    +0.207 C 
BRANCH  27  28
ATOM     28  C   UNL     1      -9.124   8.586  69.419  0.00  0.00    +0.065 C 
BRANCH  28  29
ATOM     29  C   UNL     1      -8.091   9.446  70.115  0.00  0.00    +0.076 C 
BRANCH  29  30
ATOM     30  N   UNL     1      -6.741   8.922  69.938  0.00  0.00    -0.268 NA
ATOM     31  C   UNL     1      -6.017   9.887  69.114  0.00  0.00    +0.105 C 
ATOM     32  C   UNL     1      -6.402  11.260  69.647  0.00  0.00    +0.159 C 
ATOM     33  O   UNL     1      -6.019  11.348  70.994  0.00  0.00    -0.351 OA
ATOM     34  C   UNL     1      -5.290  10.235  71.402  0.00  0.00    +0.159 C 
ATOM     35  C   UNL     1      -6.098   8.952  71.248  0.00  0.00    +0.105 C 
ENDBRANCH  29  30
ENDBRANCH  28  29
ENDBRANCH  27  28
ENDBRANCH  26  27
ENDBRANCH  13  26
TORSDOF 8
ENDMDL
MODEL 9
REMARK VINA RESULT:      -7.1      4.485      6.283
REMARK  Name = 
REMARK  8 active torsions:
REMARK  status: ('A' for Active; 'I' for Inactive)
REMARK    1  A    between atoms: O_2  and  C_3
REMARK    2  A    between atoms: C_4  and  O_5
REMARK    3  A    between atoms: O_5  and  C_6
REMARK    4  A    between atoms: C_6  and  C_7
REMARK    5  A    between atoms: C_7  and  C_8
REMARK    6  A    between atoms: C_8  and  N_9
REMARK    7  A    between atoms: C_20  and  N_21
REMARK    8  A    between atoms: C_22  and  C_24
REMARK                            x       y       z     vdW  Elec       q    Type
REMARK                         _______ _______ _______ _____ _____    ______ ____
ROOT
ATOM      1  C   UNL     1     -11.477  12.190  67.041  0.00  0.00    +0.190 A 
ATOM      2  C   UNL     1     -10.840  11.384  66.125  0.00  0.00    +0.124 A 
ATOM      3  N   UNL     1     -10.646   9.990  66.300  0.00  0.00    -0.208 NA
ATOM      4  C   UNL     1      -9.718   9.334  65.667  0.00  0.00    +0.237 A 
ATOM      5  N   UNL     1      -9.439   9.751  64.328  0.00  0.00    -0.281 N 
ATOM      6  C   UNL     1      -9.703  11.094  63.974  0.00  0.00    +0.143 A 
ATOM      7  N   UNL     1      -9.428  11.305  62.727  0.00  0.00    -0.252 NA
ATOM      8  C   UNL     1      -8.760  10.165  62.155  0.00  0.00    +0.152 C 
ATOM      9  C   UNL     1      -8.519   9.243  63.318  0.00  0.00    +0.137 C 
ATOM     10  C   UNL     1     -10.270  11.965  65.010  0.00  0.00    +0.055 A 
ATOM     11  C   UNL     1     -10.543  13.295  64.720  0.00  0.00    +0.008 A 
ATOM     12  C   UNL     1     -11.580  13.912  65.408  0.00  0.00    +0.040 A 
ATOM     13  C   UNL     1     -11.724  13.523  66.735  0.00  0.00    +0.174 A 
ENDROOT
BRANCH   4  14
ATOM     14  N   UNL     1      -9.389   7.991  66.034  0.00  0.00    -0.172 NA
ATOM     15  C   UNL     1      -8.864   7.677  67.159  0.00  0.00    +0.285 C 
ATOM     16  O   UNL     1      -8.326   8.703  67.931  0.00  0.00    -0.265 OA
BRANCH  15  17
ATOM     17  C   UNL     1      -8.719   6.289  67.620  0.00  0.00    +0.096 A 
ATOM     18  C   UNL     1      -9.821   5.457  67.774  0.00  0.00    +0.108 A 
ATOM     19  N   UNL     1      -9.768   4.174  67.338  0.00  0.00    -0.209 NA
ATOM     20  C   UNL     1      -8.604   3.610  66.936  0.00  0.00    +0.257 A 
ATOM     21  N   UNL     1      -8.584   2.634  65.888  0.00  0.00    -0.086 NA
ATOM     22  N   UNL     1      -7.483   4.294  67.276  0.00  0.00    -0.209 NA
ATOM     23  C   UNL     1      -7.500   5.631  67.498  0.00  0.00    +0.108 A 
ENDBRANCH  15  17
ENDBRANCH   4  14
BRANCH   1  25
ATOM     24  C   UNL     1     -11.584  11.238  69.316  0.00  0.00    +0.253 C 
ATOM     25  O   UNL     1     -12.161  11.575  68.080  0.00  0.00    -0.467 OA
ENDBRANCH   1  25
BRANCH  13  26
ATOM     26  O   UNL     1     -12.251  14.377  67.707  0.00  0.00    -0.472 OA
BRANCH  26  27
ATOM     27  C   UNL     1     -11.384  15.284  68.346  0.00  0.00    +0.207 C 
BRANCH  27  28
ATOM     28  C   UNL     1     -11.215  14.996  69.813  0.00  0.00    +0.065 C 
BRANCH  28  29
ATOM     29  C   UNL     1     -12.506  14.558  70.473  0.00  0.00    +0.076 C 
BRANCH  29  30
ATOM     30  N   UNL     1     -13.185  15.672  71.125  0.00  0.00    -0.268 NA
ATOM     31  C   UNL     1     -14.417  15.136  71.701  0.00  0.00    +0.105 C 
ATOM     32  C   UNL     1     -14.038  13.804  72.329  0.00  0.00    +0.159 C 
ATOM     33  O   UNL     1     -13.066  14.026  73.316  0.00  0.00    -0.351 OA
ATOM     34  C   UNL     1     -12.839  15.383  73.528  0.00  0.00    +0.159 C 
ATOM     35  C   UNL     1     -12.355  16.073  72.257  0.00  0.00    +0.105 C 
ENDBRANCH  29  30
ENDBRANCH  28  29
ENDBRANCH  27  28
ENDBRANCH  26  27
ENDBRANCH  13  26
TORSDOF 8
ENDMDL
