MODEL 1
REMARK VINA RESULT:      -8.8      0.000      0.000
REMARK  Name = 
REMARK  5 active torsions:
REMARK  status: ('A' for Active; 'I' for Inactive)
REMARK    1  A    between atoms: N_14  and  C_15
REMARK    2  A    between atoms: C_15  and  C_16
REMARK    3  A    between atoms: C_16  and  C_18
REMARK    4  A    between atoms: C_18  and  C_20
REMARK    5  A    between atoms: C_20  and  C_22
REMARK                            x       y       z     vdW  Elec       q    Type
REMARK                         _______ _______ _______ _____ _____    ______ ____
ROOT
ATOM      1  C   UNL     1     -10.423   9.527  70.468  0.00  0.00    +0.031 C 
ATOM      2  C   UNL     1     -11.306  10.417  69.650  0.00  0.00    -0.024 A 
ATOM      3  C   UNL     1     -11.984  11.438  70.305  0.00  0.00    -0.024 A 
ATOM      4  C   UNL     1     -12.729  11.012  71.509  0.00  0.00    +0.031 C 
ATOM      5  C   UNL     1     -12.043  12.722  69.772  0.00  0.00    +0.014 A 
ATOM      6  C   UNL     1     -11.698  12.845  68.431  0.00  0.00    +0.079 A 
ATOM      7  C   UNL     1     -11.492  11.713  67.650  0.00  0.00    +0.097 A 
ATOM      8  N   UNL     1     -11.786  11.706  66.326  0.00  0.00    -0.236 NA
ATOM      9  C   UNL     1     -11.903  12.906  65.744  0.00  0.00    +0.173 A 
ATOM     10  C   UNL     1     -11.543  14.104  66.517  0.00  0.00    +0.171 A 
ATOM     11  N   UNL     1     -11.465  15.275  65.884  0.00  0.00    -0.172 NA
ATOM     12  C   UNL     1     -11.812  15.299  64.578  0.00  0.00    +0.373 A 
ATOM     13  O   UNL     1     -11.381  16.235  63.855  0.00  0.00    -0.242 OA
ATOM     14  N   UNL     1     -12.482  14.296  63.983  0.00  0.00    -0.150 NA
ATOM     15  C   UNL     1     -12.599  13.087  64.554  0.00  0.00    +0.304 A 
ATOM     16  O   UNL     1     -13.421  12.217  64.178  0.00  0.00    -0.263 OA
ATOM     17  N   UNL     1     -11.505  14.044  67.853  0.00  0.00    -0.307 N 
ATOM     18  C   UNL     1     -11.021  10.578  68.300  0.00  0.00    +0.016 A 
ENDROOT
BRANCH  17  19
ATOM     19  C   UNL     1     -11.372  15.189  68.700  0.00  0.00    +0.143 C 
BRANCH  19  20
ATOM     20  C   UNL     1      -9.831  15.693  68.452  0.00  0.00    +0.207 C 
ATOM     21  O   UNL     1      -9.399  15.281  69.839  0.00  0.00    -0.218 OA
BRANCH  20  22
ATOM     22  C   UNL     1     -10.099  17.331  68.915  0.00  0.00    +0.217 C 
ATOM     23  O   UNL     1     -11.296  17.547  68.043  0.00  0.00    -0.218 OA
BRANCH  22  24
ATOM     24  C   UNL     1      -8.955  17.900  67.769  0.00  0.00    +0.217 C 
ATOM     25  O   UNL     1      -7.878  17.964  68.831  0.00  0.00    -0.217 OA
BRANCH  24  26
ATOM     26  C   UNL     1      -9.318  19.476  68.011  0.00  0.00    +0.217 C 
ATOM     27  O   UNL     1      -9.502  20.075  66.805  0.00  0.00    -0.217 OA
ENDBRANCH  24  26
ENDBRANCH  22  24
ENDBRANCH  20  22
ENDBRANCH  19  20
ENDBRANCH  17  19
TORSDOF 5
ENDMDL
MODEL 2
REMARK VINA RESULT:      -8.5      2.128      3.399
REMARK  Name = 
REMARK  5 active torsions:
REMARK  status: ('A' for Active; 'I' for Inactive)
REMARK    1  A    between atoms: N_14  and  C_15
REMARK    2  A    between atoms: C_15  and  C_16
REMARK    3  A    between atoms: C_16  and  C_18
REMARK    4  A    between atoms: C_18  and  C_20
REMARK    5  A    between atoms: C_20  and  C_22
REMARK                            x       y       z     vdW  Elec       q    Type
REMARK                         _______ _______ _______ _____ _____    ______ ____
ROOT
ATOM      1  C   UNL     1     -10.576   8.724  70.435  0.00  0.00    +0.031 C 
ATOM      2  C   UNL     1     -11.357   9.787  69.727  0.00  0.00    -0.024 A 
ATOM      3  C   UNL     1     -11.953  10.777  70.500  0.00  0.00    -0.024 A 
ATOM      4  C   UNL     1     -12.759  10.274  71.633  0.00  0.00    +0.031 C 
ATOM      5  C   UNL     1     -11.885  12.116  70.133  0.00  0.00    +0.014 A 
ATOM      6  C   UNL     1     -11.501  12.375  68.821  0.00  0.00    +0.079 A 
ATOM      7  C   UNL     1     -11.383  11.335  67.905  0.00  0.00    +0.097 A 
ATOM      8  N   UNL     1     -11.648  11.520  66.589  0.00  0.00    -0.236 NA
ATOM      9  C   UNL     1     -11.643  12.790  66.161  0.00  0.00    +0.173 A 
ATOM     10  C   UNL     1     -11.193  13.843  67.084  0.00  0.00    +0.171 A 
ATOM     11  N   UNL     1     -10.996  15.072  66.604  0.00  0.00    -0.172 NA
ATOM     12  C   UNL     1     -11.311  15.291  65.309  0.00  0.00    +0.373 A 
ATOM     13  O   UNL     1     -10.783  16.266  64.714  0.00  0.00    -0.242 OA
ATOM     14  N   UNL     1     -12.056  14.436  64.585  0.00  0.00    -0.150 NA
ATOM     15  C   UNL     1     -12.294  13.181  64.998  0.00  0.00    +0.304 A 
ATOM     16  O   UNL     1     -13.184  12.444  64.506  0.00  0.00    -0.263 OA
ATOM     17  N   UNL     1     -11.188  13.613  68.401  0.00  0.00    -0.307 N 
ATOM     18  C   UNL     1     -11.030  10.088  68.411  0.00  0.00    +0.016 A 
ENDROOT
BRANCH  17  19
ATOM     19  C   UNL     1     -10.971  14.626  69.388  0.00  0.00    +0.143 C 
BRANCH  19  20
ATOM     20  C   UNL     1     -12.482  15.075  69.839  0.00  0.00    +0.207 C 
ATOM     21  O   UNL     1     -12.427  16.340  69.015  0.00  0.00    -0.218 OA
BRANCH  20  22
ATOM     22  C   UNL     1     -12.008  15.881  71.287  0.00  0.00    +0.217 C 
ATOM     23  O   UNL     1     -10.830  15.004  71.575  0.00  0.00    -0.218 OA
BRANCH  22  24
ATOM     24  C   UNL     1     -13.123  14.972  72.223  0.00  0.00    +0.217 C 
ATOM     25  O   UNL     1     -14.237  15.942  71.893  0.00  0.00    -0.217 OA
BRANCH  24  26
ATOM     26  C   UNL     1     -12.800  15.778  73.609  0.00  0.00    +0.217 C 
ATOM     27  O   UNL     1     -12.334  14.897  74.532  0.00  0.00    -0.217 OA
ENDBRANCH  24  26
ENDBRANCH  22  24
ENDBRANCH  20  22
ENDBRANCH  19  20
ENDBRANCH  17  19
TORSDOF 5
ENDMDL
MODEL 3
REMARK VINA RESULT:      -8.4      2.826      5.531
REMARK  Name = 
REMARK  5 active torsions:
REMARK  status: ('A' for Active; 'I' for Inactive)
REMARK    1  A    between atoms: N_14  and  C_15
REMARK    2  A    between atoms: C_15  and  C_16
REMARK    3  A    between atoms: C_16  and  C_18
REMARK    4  A    between atoms: C_18  and  C_20
REMARK    5  A    between atoms: C_20  and  C_22
REMARK                            x       y       z     vdW  Elec       q    Type
REMARK                         _______ _______ _______ _____ _____    ______ ____
ROOT
ATOM      1  C   UNL     1     -13.578   7.319  71.534  0.00  0.00    +0.031 C 
ATOM      2  C   UNL     1     -12.837   8.606  71.722  0.00  0.00    -0.024 A 
ATOM      3  C   UNL     1     -11.509   8.655  71.316  0.00  0.00    -0.024 A 
ATOM      4  C   UNL     1     -10.668   7.547  71.820  0.00  0.00    +0.031 C 
ATOM      5  C   UNL     1     -11.013   9.740  70.602  0.00  0.00    +0.014 A 
ATOM      6  C   UNL     1     -11.794  10.890  70.612  0.00  0.00    +0.079 A 
ATOM      7  C   UNL     1     -12.903  10.979  71.447  0.00  0.00    +0.097 A 
ATOM      8  N   UNL     1     -13.293  12.164  71.978  0.00  0.00    -0.236 NA
ATOM      9  C   UNL     1     -12.823  13.263  71.373  0.00  0.00    +0.173 A 
ATOM     10  C   UNL     1     -12.084  13.111  70.110  0.00  0.00    +0.171 A 
ATOM     11  N   UNL     1     -11.791  14.205  69.405  0.00  0.00    -0.172 NA
ATOM     12  C   UNL     1     -12.119  15.399  69.946  0.00  0.00    +0.373 A 
ATOM     13  O   UNL     1     -12.244  16.394  69.185  0.00  0.00    -0.242 OA
ATOM     14  N   UNL     1     -12.452  15.546  71.240  0.00  0.00    -0.150 NA
ATOM     15  C   UNL     1     -12.766  14.494  72.014  0.00  0.00    +0.304 A 
ATOM     16  O   UNL     1     -12.820  14.545  73.267  0.00  0.00    -0.263 OA
ATOM     17  N   UNL     1     -11.544  11.929  69.797  0.00  0.00    -0.307 N 
ATOM     18  C   UNL     1     -13.560   9.792  71.750  0.00  0.00    +0.016 A 
ENDROOT
BRANCH  17  19
ATOM     19  C   UNL     1     -10.639  11.728  68.707  0.00  0.00    +0.143 C 
BRANCH  19  20
ATOM     20  C   UNL     1     -11.616  11.417  67.427  0.00  0.00    +0.207 C 
ATOM     21  O   UNL     1     -10.944  10.095  67.145  0.00  0.00    -0.218 OA
BRANCH  20  22
ATOM     22  C   UNL     1     -10.666  12.260  66.263  0.00  0.00    +0.217 C 
ATOM     23  O   UNL     1     -11.059  13.635  66.705  0.00  0.00    -0.218 OA
BRANCH  22  24
ATOM     24  C   UNL     1     -11.894  12.112  65.072  0.00  0.00    +0.217 C 
ATOM     25  O   UNL     1     -10.996  11.251  64.211  0.00  0.00    -0.217 OA
BRANCH  24  26
ATOM     26  C   UNL     1     -11.431  13.451  64.256  0.00  0.00    +0.217 C 
ATOM     27  O   UNL     1     -12.520  14.002  63.660  0.00  0.00    -0.217 OA
ENDBRANCH  24  26
ENDBRANCH  22  24
ENDBRANCH  20  22
ENDBRANCH  19  20
ENDBRANCH  17  19
TORSDOF 5
ENDMDL
MODEL 4
REMARK VINA RESULT:      -7.3      3.096      6.738
REMARK  Name = 
REMARK  5 active torsions:
REMARK  status: ('A' for Active; 'I' for Inactive)
REMARK    1  A    between atoms: N_14  and  C_15
REMARK    2  A    between atoms: C_15  and  C_16
REMARK    3  A    between atoms: C_16  and  C_18
REMARK    4  A    between atoms: C_18  and  C_20
REMARK    5  A    between atoms: C_20  and  C_22
REMARK                            x       y       z     vdW  Elec       q    Type
REMARK                         _______ _______ _______ _____ _____    ______ ____
ROOT
ATOM      1  C   UNL     1      -8.647  18.753  68.333  0.00  0.00    +0.031 C 
ATOM      2  C   UNL     1      -9.872  17.898  68.432  0.00  0.00    -0.024 A 
ATOM      3  C   UNL     1     -10.201  17.108  67.336  0.00  0.00    -0.024 A 
ATOM      4  C   UNL     1     -10.229  17.826  66.044  0.00  0.00    +0.031 C 
ATOM      5  C   UNL     1     -10.595  15.784  67.495  0.00  0.00    +0.014 A 
ATOM      6  C   UNL     1     -10.963  15.404  68.782  0.00  0.00    +0.079 A 
ATOM      7  C   UNL     1     -11.098  16.357  69.786  0.00  0.00    +0.097 A 
ATOM      8  N   UNL     1     -12.004  16.207  70.783  0.00  0.00    -0.236 NA
ATOM      9  C   UNL     1     -12.467  14.965  70.975  0.00  0.00    +0.173 A 
ATOM     10  C   UNL     1     -11.849  13.858  70.230  0.00  0.00    +0.171 A 
ATOM     11  N   UNL     1     -12.166  12.607  70.563  0.00  0.00    -0.172 NA
ATOM     12  C   UNL     1     -13.111  12.437  71.514  0.00  0.00    +0.373 A 
ATOM     13  O   UNL     1     -13.151  11.346  72.140  0.00  0.00    -0.242 OA
ATOM     14  N   UNL     1     -13.923  13.430  71.920  0.00  0.00    -0.150 NA
ATOM     15  C   UNL     1     -13.668  14.716  71.630  0.00  0.00    +0.304 A 
ATOM     16  O   UNL     1     -14.513  15.636  71.748  0.00  0.00    -0.263 OA
ATOM     17  N   UNL     1     -11.155  14.116  69.116  0.00  0.00    -0.307 N 
ATOM     18  C   UNL     1     -10.298  17.490  69.689  0.00  0.00    +0.016 A 
ENDROOT
BRANCH  17  19
ATOM     19  C   UNL     1     -10.694  13.108  68.211  0.00  0.00    +0.143 C 
BRANCH  19  20
ATOM     20  C   UNL     1     -11.967  12.859  67.208  0.00  0.00    +0.207 C 
ATOM     21  O   UNL     1     -12.245  11.491  67.784  0.00  0.00    -0.218 OA
BRANCH  20  22
ATOM     22  C   UNL     1     -11.045  12.227  65.897  0.00  0.00    +0.217 C 
ATOM     23  O   UNL     1      -9.840  13.085  66.125  0.00  0.00    -0.218 OA
BRANCH  22  24
ATOM     24  C   UNL     1     -11.798  13.294  64.782  0.00  0.00    +0.217 C 
ATOM     25  O   UNL     1     -13.111  12.555  64.915  0.00  0.00    -0.217 OA
BRANCH  24  26
ATOM     26  C   UNL     1     -11.400  12.398  63.473  0.00  0.00    +0.217 C 
ATOM     27  O   UNL     1     -12.502  11.726  63.049  0.00  0.00    -0.217 OA
ENDBRANCH  24  26
ENDBRANCH  22  24
ENDBRANCH  20  22
ENDBRANCH  19  20
ENDBRANCH  17  19
TORSDOF 5
ENDMDL
MODEL 5
REMARK VINA RESULT:      -7.3      1.859      2.220
REMARK  Name = 
REMARK  5 active torsions:
REMARK  status: ('A' for Active; 'I' for Inactive)
REMARK    1  A    between atoms: N_14  and  C_15
REMARK    2  A    between atoms: C_15  and  C_16
REMARK    3  A    between atoms: C_16  and  C_18
REMARK    4  A    between atoms: C_18  and  C_20
REMARK    5  A    between atoms: C_20  and  C_22
REMARK                            x       y       z     vdW  Elec       q    Type
REMARK                         _______ _______ _______ _____ _____    ______ ____
ROOT
ATOM      1  C   UNL     1      -7.465   8.974  67.538  0.00  0.00    +0.031 C 
ATOM      2  C   UNL     1      -8.714   9.769  67.318  0.00  0.00    -0.024 A 
ATOM      3  C   UNL     1      -9.300  10.375  68.423  0.00  0.00    -0.024 A 
ATOM      4  C   UNL     1      -9.508   9.479  69.580  0.00  0.00    +0.031 C 
ATOM      5  C   UNL     1      -9.760  11.686  68.366  0.00  0.00    +0.014 A 
ATOM      6  C   UNL     1      -9.914  12.228  67.095  0.00  0.00    +0.079 A 
ATOM      7  C   UNL     1      -9.787  11.423  65.967  0.00  0.00    +0.097 A 
ATOM      8  N   UNL     1     -10.504  11.667  64.842  0.00  0.00    -0.236 NA
ATOM      9  C   UNL     1     -11.020  12.899  64.729  0.00  0.00    +0.173 A 
ATOM     10  C   UNL     1     -10.638  13.917  65.719  0.00  0.00    +0.171 A 
ATOM     11  N   UNL     1     -10.986  15.186  65.498  0.00  0.00    -0.172 NA
ATOM     12  C   UNL     1     -11.750  15.440  64.413  0.00  0.00    +0.373 A 
ATOM     13  O   UNL     1     -11.760  16.606  63.941  0.00  0.00    -0.242 OA
ATOM     14  N   UNL     1     -12.393  14.476  63.732  0.00  0.00    -0.150 NA
ATOM     15  C   UNL     1     -12.095  13.176  63.894  0.00  0.00    +0.304 A 
ATOM     16  O   UNL     1     -12.830  12.240  63.495  0.00  0.00    -0.263 OA
ATOM     17  N   UNL     1     -10.142  13.539  66.902  0.00  0.00    -0.307 N 
ATOM     18  C   UNL     1      -8.932  10.331  66.066  0.00  0.00    +0.016 A 
ENDROOT
BRANCH  17  19
ATOM     19  C   UNL     1      -9.936  14.429  68.003  0.00  0.00    +0.143 C 
BRANCH  19  20
ATOM     20  C   UNL     1      -8.550  15.220  67.623  0.00  0.00    +0.207 C 
ATOM     21  O   UNL     1      -7.742  14.429  68.624  0.00  0.00    -0.218 OA
BRANCH  20  22
ATOM     22  C   UNL     1      -8.789  16.537  68.709  0.00  0.00    +0.217 C 
ATOM     23  O   UNL     1      -9.945  17.139  67.973  0.00  0.00    -0.218 OA
BRANCH  22  24
ATOM     24  C   UNL     1      -7.586  17.475  67.922  0.00  0.00    +0.217 C 
ATOM     25  O   UNL     1      -6.641  17.297  69.090  0.00  0.00    -0.217 OA
BRANCH  24  26
ATOM     26  C   UNL     1      -8.118  18.893  68.540  0.00  0.00    +0.217 C 
ATOM     27  O   UNL     1      -7.110  19.472  69.244  0.00  0.00    -0.217 OA
ENDBRANCH  24  26
ENDBRANCH  22  24
ENDBRANCH  20  22
ENDBRANCH  19  20
ENDBRANCH  17  19
TORSDOF 5
ENDMDL
MODEL 6
REMARK VINA RESULT:      -7.3      2.567      5.953
REMARK  Name = 
REMARK  5 active torsions:
REMARK  status: ('A' for Active; 'I' for Inactive)
REMARK    1  A    between atoms: N_14  and  C_15
REMARK    2  A    between atoms: C_15  and  C_16
REMARK    3  A    between atoms: C_16  and  C_18
REMARK    4  A    between atoms: C_18  and  C_20
REMARK    5  A    between atoms: C_20  and  C_22
REMARK                            x       y       z     vdW  Elec       q    Type
REMARK                         _______ _______ _______ _____ _____    ______ ____
ROOT
ATOM      1  C   UNL     1     -10.572  20.058  65.838  0.00  0.00    +0.031 C 
ATOM      2  C   UNL     1     -10.027  18.668  65.944  0.00  0.00    -0.024 A 
ATOM      3  C   UNL     1      -9.166  18.387  66.999  0.00  0.00    -0.024 A 
ATOM      4  C   UNL     1      -8.051  19.345  67.158  0.00  0.00    +0.031 C 
ATOM      5  C   UNL     1      -9.297  17.220  67.744  0.00  0.00    +0.014 A 
ATOM      6  C   UNL     1     -10.084  16.219  67.184  0.00  0.00    +0.079 A 
ATOM      7  C   UNL     1     -10.544  16.335  65.877  0.00  0.00    +0.097 A 
ATOM      8  N   UNL     1     -10.725  15.244  65.093  0.00  0.00    -0.236 NA
ATOM      9  C   UNL     1     -10.819  14.070  65.732  0.00  0.00    +0.173 A 
ATOM     10  C   UNL     1     -10.892  14.071  67.201  0.00  0.00    +0.171 A 
ATOM     11  N   UNL     1     -11.185  12.930  67.827  0.00  0.00    -0.172 NA
ATOM     12  C   UNL     1     -11.311  11.820  67.068  0.00  0.00    +0.373 A 
ATOM     13  O   UNL     1     -11.966  10.846  67.523  0.00  0.00    -0.242 OA
ATOM     14  N   UNL     1     -10.886  11.755  65.793  0.00  0.00    -0.150 NA
ATOM     15  C   UNL     1     -10.577  12.859  65.094  0.00  0.00    +0.304 A 
ATOM     16  O   UNL     1      -9.933  12.843  64.017  0.00  0.00    -0.263 OA
ATOM     17  N   UNL     1     -10.467  15.138  67.885  0.00  0.00    -0.307 N 
ATOM     18  C   UNL     1     -10.761  17.623  65.398  0.00  0.00    +0.016 A 
ENDROOT
BRANCH  17  19
ATOM     19  C   UNL     1     -10.301  15.161  69.306  0.00  0.00    +0.143 C 
BRANCH  19  20
ATOM     20  C   UNL     1     -11.747  15.691  69.869  0.00  0.00    +0.207 C 
ATOM     21  O   UNL     1     -11.141  16.944  70.453  0.00  0.00    -0.218 OA
BRANCH  20  22
ATOM     22  C   UNL     1     -11.681  14.843  71.367  0.00  0.00    +0.217 C 
ATOM     23  O   UNL     1     -12.020  13.499  70.802  0.00  0.00    -0.218 OA
BRANCH  22  24
ATOM     24  C   UNL     1     -13.299  15.275  71.746  0.00  0.00    +0.217 C 
ATOM     25  O   UNL     1     -12.828  16.174  72.868  0.00  0.00    -0.217 OA
BRANCH  24  26
ATOM     26  C   UNL     1     -13.510  14.038  72.795  0.00  0.00    +0.217 C 
ATOM     27  O   UNL     1     -14.657  13.382  72.476  0.00  0.00    -0.217 OA
ENDBRANCH  24  26
ENDBRANCH  22  24
ENDBRANCH  20  22
ENDBRANCH  19  20
ENDBRANCH  17  19
TORSDOF 5
ENDMDL
MODEL 7
REMARK VINA RESULT:      -7.2      2.657      4.333
REMARK  Name = 
REMARK  5 active torsions:
REMARK  status: ('A' for Active; 'I' for Inactive)
REMARK    1  A    between atoms: N_14  and  C_15
REMARK    2  A    between atoms: C_15  and  C_16
REMARK    3  A    between atoms: C_16  and  C_18
REMARK    4  A    between atoms: C_18  and  C_20
REMARK    5  A    between atoms: C_20  and  C_22
REMARK                            x       y       z     vdW  Elec       q    Type
REMARK                         _______ _______ _______ _____ _____    ______ ____
ROOT
ATOM      1  C   UNL     1      -9.897   9.587  65.540  0.00  0.00    +0.031 C 
ATOM      2  C   UNL     1      -9.956  10.154  66.924  0.00  0.00    -0.024 A 
ATOM      3  C   UNL     1      -8.853  10.866  67.381  0.00  0.00    -0.024 A 
ATOM      4  C   UNL     1      -7.557  10.173  67.209  0.00  0.00    +0.031 C 
ATOM      5  C   UNL     1      -9.002  12.071  68.058  0.00  0.00    +0.014 A 
ATOM      6  C   UNL     1     -10.276  12.348  68.542  0.00  0.00    +0.079 A 
ATOM      7  C   UNL     1     -11.271  11.378  68.501  0.00  0.00    +0.097 A 
ATOM      8  N   UNL     1     -12.237  11.316  69.450  0.00  0.00    -0.236 NA
ATOM      9  C   UNL     1     -12.417  12.426  70.179  0.00  0.00    +0.173 A 
ATOM     10  C   UNL     1     -11.698  13.649  69.791  0.00  0.00    +0.171 A 
ATOM     11  N   UNL     1     -12.024  14.798  70.384  0.00  0.00    -0.172 NA
ATOM     12  C   UNL     1     -12.942  14.748  71.374  0.00  0.00    +0.373 A 
ATOM     13  O   UNL     1     -13.569  15.797  71.671  0.00  0.00    -0.242 OA
ATOM     14  N   UNL     1     -13.316  13.598  71.963  0.00  0.00    -0.150 NA
ATOM     15  C   UNL     1     -13.030  12.401  71.426  0.00  0.00    +0.304 A 
ATOM     16  O   UNL     1     -13.116  11.318  72.054  0.00  0.00    -0.263 OA
ATOM     17  N   UNL     1     -10.608  13.560  69.021  0.00  0.00    -0.307 N 
ATOM     18  C   UNL     1     -11.199  10.446  67.471  0.00  0.00    +0.016 A 
ENDROOT
BRANCH  17  19
ATOM     19  C   UNL     1      -9.723  14.654  68.760  0.00  0.00    +0.143 C 
BRANCH  19  20
ATOM     20  C   UNL     1     -10.322  15.335  67.393  0.00  0.00    +0.207 C 
ATOM     21  O   UNL     1      -9.077  15.012  66.603  0.00  0.00    -0.218 OA
BRANCH  20  22
ATOM     22  C   UNL     1      -9.800  16.939  67.746  0.00  0.00    +0.217 C 
ATOM     23  O   UNL     1     -11.019  17.334  68.520  0.00  0.00    -0.218 OA
BRANCH  22  24
ATOM     24  C   UNL     1     -10.372  17.516  66.233  0.00  0.00    +0.217 C 
ATOM     25  O   UNL     1      -8.958  17.800  65.774  0.00  0.00    -0.217 OA
BRANCH  24  26
ATOM     26  C   UNL     1     -10.538  19.059  66.749  0.00  0.00    +0.217 C 
ATOM     27  O   UNL     1     -10.594  19.881  65.669  0.00  0.00    -0.217 OA
ENDBRANCH  24  26
ENDBRANCH  22  24
ENDBRANCH  20  22
ENDBRANCH  19  20
ENDBRANCH  17  19
TORSDOF 5
ENDMDL
MODEL 8
REMARK VINA RESULT:      -7.0      3.213      7.160
REMARK  Name = 
REMARK  5 active torsions:
REMARK  status: ('A' for Active; 'I' for Inactive)
REMARK    1  A    between atoms: N_14  and  C_15
REMARK    2  A    between atoms: C_15  and  C_16
REMARK    3  A    between atoms: C_16  and  C_18
REMARK    4  A    between atoms: C_18  and  C_20
REMARK    5  A    between atoms: C_20  and  C_22
REMARK                            x       y       z     vdW  Elec       q    Type
REMARK                         _______ _______ _______ _____ _____    ______ ____
ROOT
ATOM      1  C   UNL     1      -8.450  18.429  67.899  0.00  0.00    +0.031 C 
ATOM      2  C   UNL     1      -9.756  17.759  68.194  0.00  0.00    -0.024 A 
ATOM      3  C   UNL     1     -10.409  17.121  67.145  0.00  0.00    -0.024 A 
ATOM      4  C   UNL     1     -10.563  17.940  65.924  0.00  0.00    +0.031 C 
ATOM      5  C   UNL     1     -10.974  15.861  67.309  0.00  0.00    +0.014 A 
ATOM      6  C   UNL     1     -11.149  15.432  68.620  0.00  0.00    +0.079 A 
ATOM      7  C   UNL     1     -10.937  16.307  69.680  0.00  0.00    +0.097 A 
ATOM      8  N   UNL     1     -11.651  16.210  70.829  0.00  0.00    -0.236 NA
ATOM      9  C   UNL     1     -12.264  15.038  71.043  0.00  0.00    +0.173 A 
ATOM     10  C   UNL     1     -11.983  13.919  70.131  0.00  0.00    +0.171 A 
ATOM     11  N   UNL     1     -12.430  12.704  70.454  0.00  0.00    -0.172 NA
ATOM     12  C   UNL     1     -13.193  12.597  71.563  0.00  0.00    +0.373 A 
ATOM     13  O   UNL     1     -13.291  11.476  72.125  0.00  0.00    -0.242 OA
ATOM     14  N   UNL     1     -13.744  13.661  72.175  0.00  0.00    -0.150 NA
ATOM     15  C   UNL     1     -13.344  14.915  71.909  0.00  0.00    +0.304 A 
ATOM     16  O   UNL     1     -13.992  15.937  72.242  0.00  0.00    -0.263 OA
ATOM     17  N   UNL     1     -11.479  14.163  68.917  0.00  0.00    -0.307 N 
ATOM     18  C   UNL     1      -9.998  17.314  69.487  0.00  0.00    +0.016 A 
ENDROOT
BRANCH  17  19
ATOM     19  C   UNL     1     -11.366  13.178  67.886  0.00  0.00    +0.143 C 
BRANCH  19  20
ATOM     20  C   UNL     1     -10.049  12.299  68.316  0.00  0.00    +0.207 C 
ATOM     21  O   UNL     1      -9.202  12.902  67.221  0.00  0.00    -0.218 OA
BRANCH  20  22
ATOM     22  C   UNL     1     -10.445  10.908  67.380  0.00  0.00    +0.217 C 
ATOM     23  O   UNL     1     -11.799  10.695  67.980  0.00  0.00    -0.218 OA
BRANCH  22  24
ATOM     24  C   UNL     1      -9.617   9.871  68.469  0.00  0.00    +0.217 C 
ATOM     25  O   UNL     1      -8.420   9.807  67.546  0.00  0.00    -0.217 OA
BRANCH  24  26
ATOM     26  C   UNL     1     -10.224   8.501  67.815  0.00  0.00    +0.217 C 
ATOM     27  O   UNL     1     -10.548   7.642  68.816  0.00  0.00    -0.217 OA
ENDBRANCH  24  26
ENDBRANCH  22  24
ENDBRANCH  20  22
ENDBRANCH  19  20
ENDBRANCH  17  19
TORSDOF 5
ENDMDL
MODEL 9
REMARK VINA RESULT:      -7.0      3.048      5.317
REMARK  Name = 
REMARK  5 active torsions:
REMARK  status: ('A' for Active; 'I' for Inactive)
REMARK    1  A    between atoms: N_14  and  C_15
REMARK    2  A    between atoms: C_15  and  C_16
REMARK    3  A    between atoms: C_16  and  C_18
REMARK    4  A    between atoms: C_18  and  C_20
REMARK    5  A    between atoms: C_20  and  C_22
REMARK                            x       y       z     vdW  Elec       q    Type
REMARK                         _______ _______ _______ _____ _____    ______ ____
ROOT
ATOM      1  C   UNL     1      -7.212  11.183  67.925  0.00  0.00    +0.031 C 
ATOM      2  C   UNL     1      -7.861  12.360  67.265  0.00  0.00    -0.024 A 
ATOM      3  C   UNL     1      -9.192  12.236  66.882  0.00  0.00    -0.024 A 
ATOM      4  C   UNL     1      -9.496  11.023  66.092  0.00  0.00    +0.031 C 
ATOM      5  C   UNL     1     -10.109  13.252  67.126  0.00  0.00    +0.014 A 
ATOM      6  C   UNL     1      -9.577  14.495  67.449  0.00  0.00    +0.079 A 
ATOM      7  C   UNL     1      -8.209  14.723  67.344  0.00  0.00    +0.097 A 
ATOM      8  N   UNL     1      -7.720  15.945  67.017  0.00  0.00    -0.236 NA
ATOM      9  C   UNL     1      -8.558  16.977  67.183  0.00  0.00    +0.173 A 
ATOM     10  C   UNL     1      -9.847  16.739  67.852  0.00  0.00    +0.171 A 
ATOM     11  N   UNL     1     -10.591  17.790  68.197  0.00  0.00    -0.172 NA
ATOM     12  C   UNL     1     -10.150  19.012  67.828  0.00  0.00    +0.373 A 
ATOM     13  O   UNL     1     -10.567  20.021  68.454  0.00  0.00    -0.242 OA
ATOM     14  N   UNL     1      -9.181  19.192  66.913  0.00  0.00    -0.150 NA
ATOM     15  C   UNL     1      -8.386  18.184  66.518  0.00  0.00    +0.304 A 
ATOM     16  O   UNL     1      -7.661  18.231  65.494  0.00  0.00    -0.263 OA
ATOM     17  N   UNL     1     -10.341  15.498  67.915  0.00  0.00    -0.307 N 
ATOM     18  C   UNL     1      -7.372  13.630  67.540  0.00  0.00    +0.016 A 
ENDROOT
BRANCH  17  19
ATOM     19  C   UNL     1     -11.668  15.188  68.353  0.00  0.00    +0.143 C 
BRANCH  19  20
ATOM     20  C   UNL     1     -11.456  14.548  69.848  0.00  0.00    +0.207 C 
ATOM     21  O   UNL     1     -12.412  13.412  69.573  0.00  0.00    -0.218 OA
BRANCH  20  22
ATOM     22  C   UNL     1     -12.660  15.503  70.627  0.00  0.00    +0.217 C 
ATOM     23  O   UNL     1     -11.738  16.603  71.050  0.00  0.00    -0.218 OA
BRANCH  22  24
ATOM     24  C   UNL     1     -12.515  14.599  72.080  0.00  0.00    +0.217 C 
ATOM     25  O   UNL     1     -13.971  14.191  72.006  0.00  0.00    -0.217 OA
BRANCH  24  26
ATOM     26  C   UNL     1     -12.895  15.863  73.045  0.00  0.00    +0.217 C 
ATOM     27  O   UNL     1     -12.528  15.569  74.320  0.00  0.00    -0.217 OA
ENDBRANCH  24  26
ENDBRANCH  22  24
ENDBRANCH  20  22
ENDBRANCH  19  20
ENDBRANCH  17  19
TORSDOF 5
ENDMDL
