MODEL 1
REMARK VINA RESULT:      -7.3      0.000      0.000
REMARK  Name = 
REMARK  2 active torsions:
REMARK  status: ('A' for Active; 'I' for Inactive)
REMARK    1  A    between atoms: C_2  and  CA_4
REMARK    2  A    between atoms: C_6  and  C_7
REMARK                            x       y       z     vdW  Elec       q    Type
REMARK                         _______ _______ _______ _____ _____    ______ ____
ROOT
ATOM      1  CA  UNL     1      -9.561  17.154  68.439  0.00  0.00    +0.284 C 
ATOM      2  C   UNL     1      -9.989  16.560  66.959  0.00  0.00    +0.279 C 
ATOM      3  O   UNL     1      -9.357  17.203  66.091  0.00  0.00    -0.270 OA
ATOM      4  N   UNL     1     -10.002  15.140  66.766  0.00  0.00    -0.177 NA
ATOM      5  C   UNL     1     -10.350  14.169  67.739  0.00  0.00    +0.075 A 
ATOM      6  C   UNL     1     -11.056  14.413  68.912  0.00  0.00    +0.033 A 
ATOM      7  C   UNL     1     -11.642  13.345  69.571  0.00  0.00    +0.014 A 
ATOM      8  C   UNL     1     -11.327  12.055  69.158  0.00  0.00    +0.058 A 
ATOM      9  C   UNL     1     -10.209  11.899  68.369  0.00  0.00    +0.013 A 
ATOM     10 CL   UNL     1     -12.417  10.729  69.542  0.00  0.00    -0.082 Cl
ATOM     11  C   UNL     1     -11.260  15.690  69.557  0.00  0.00    +0.078 C 
ATOM     12  C   UNL     1      -9.884  12.890  67.465  0.00  0.00    +0.018 A 
ATOM     13  N   UNL     1     -11.031  16.855  69.028  0.00  0.00    -0.252 NA
ENDROOT
BRANCH  11  14
ATOM     14  C   UNL     1     -12.135  15.644  70.735  0.00  0.00    +0.017 A 
ATOM     15  C   UNL     1     -11.611  16.158  71.900  0.00  0.00    +0.001 A 
ATOM     16  C   UNL     1     -12.363  16.007  73.051  0.00  0.00    +0.000 A 
ATOM     17  C   UNL     1     -13.693  15.649  72.952  0.00  0.00    +0.000 A 
ATOM     18  C   UNL     1     -14.248  15.319  71.722  0.00  0.00    +0.000 A 
ATOM     19  C   UNL     1     -13.463  15.280  70.589  0.00  0.00    +0.001 A 
ENDBRANCH  11  14
BRANCH   1  21
ATOM     20  O   UNL     1      -9.234  19.372  68.387  0.00  0.00    -0.243 OA
ATOM     21  C   UNL     1      -9.964  18.697  68.023  0.00  0.00    +0.396 C 
ATOM     22  OXT UNL     1     -11.229  18.872  67.552  0.00  0.00    -0.243 OA
ENDBRANCH   1  21
TORSDOF 2
ENDMDL
MODEL 2
REMARK VINA RESULT:      -7.2      1.837      4.560
REMARK  Name = 
REMARK  2 active torsions:
REMARK  status: ('A' for Active; 'I' for Inactive)
REMARK    1  A    between atoms: C_2  and  CA_4
REMARK    2  A    between atoms: C_6  and  C_7
REMARK                            x       y       z     vdW  Elec       q    Type
REMARK                         _______ _______ _______ _____ _____    ______ ____
ROOT
ATOM      1  CA  UNL     1     -10.919  17.909  67.175  0.00  0.00    +0.284 C 
ATOM      2  C   UNL     1      -9.910  17.846  68.481  0.00  0.00    +0.279 C 
ATOM      3  O   UNL     1      -9.550  19.015  68.743  0.00  0.00    -0.270 OA
ATOM      4  N   UNL     1     -10.305  17.067  69.617  0.00  0.00    -0.177 NA
ATOM      5  C   UNL     1     -11.046  15.859  69.584  0.00  0.00    +0.075 A 
ATOM      6  C   UNL     1     -11.221  15.045  68.470  0.00  0.00    +0.033 A 
ATOM      7  C   UNL     1     -11.638  13.738  68.660  0.00  0.00    +0.014 A 
ATOM      8  C   UNL     1     -12.067  13.353  69.925  0.00  0.00    +0.058 A 
ATOM      9  C   UNL     1     -12.382  14.355  70.817  0.00  0.00    +0.013 A 
ATOM     10 CL   UNL     1     -12.063  11.650  70.364  0.00  0.00    -0.082 Cl
ATOM     11  C   UNL     1     -11.019  15.407  67.086  0.00  0.00    +0.078 C 
ATOM     12  C   UNL     1     -11.662  15.531  70.785  0.00  0.00    +0.018 A 
ATOM     13  N   UNL     1     -10.407  16.472  66.659  0.00  0.00    -0.252 NA
ENDROOT
BRANCH  11  14
ATOM     14  C   UNL     1     -11.190  14.301  66.136  0.00  0.00    +0.017 A 
ATOM     15  C   UNL     1     -12.483  14.029  65.748  0.00  0.00    +0.001 A 
ATOM     16  C   UNL     1     -12.683  12.910  64.960  0.00  0.00    +0.000 A 
ATOM     17  C   UNL     1     -11.602  12.308  64.347  0.00  0.00    +0.000 A 
ATOM     18  C   UNL     1     -10.308  12.735  64.613  0.00  0.00    +0.000 A 
ATOM     19  C   UNL     1     -10.077  13.727  65.544  0.00  0.00    +0.001 A 
ENDBRANCH  11  14
BRANCH   1  21
ATOM     20  O   UNL     1     -10.235  19.606  65.878  0.00  0.00    -0.243 OA
ATOM     21  C   UNL     1      -9.810  18.713  66.259  0.00  0.00    +0.396 C 
ATOM     22  OXT UNL     1      -8.693  18.009  65.930  0.00  0.00    -0.243 OA
ENDBRANCH   1  21
TORSDOF 2
ENDMDL
MODEL 3
REMARK VINA RESULT:      -7.1      1.841      2.626
REMARK  Name = 
REMARK  2 active torsions:
REMARK  status: ('A' for Active; 'I' for Inactive)
REMARK    1  A    between atoms: C_2  and  CA_4
REMARK    2  A    between atoms: C_6  and  C_7
REMARK                            x       y       z     vdW  Elec       q    Type
REMARK                         _______ _______ _______ _____ _____    ______ ____
ROOT
ATOM      1  CA  UNL     1     -10.091  14.442  67.976  0.00  0.00    +0.284 C 
ATOM      2  C   UNL     1     -10.878  13.394  66.970  0.00  0.00    +0.279 C 
ATOM      3  O   UNL     1     -10.340  13.470  65.843  0.00  0.00    -0.270 OA
ATOM      4  N   UNL     1     -11.131  12.061  67.430  0.00  0.00    -0.177 NA
ATOM      5  C   UNL     1     -11.420  11.678  68.764  0.00  0.00    +0.075 A 
ATOM      6  C   UNL     1     -11.844  12.530  69.778  0.00  0.00    +0.033 A 
ATOM      7  C   UNL     1     -12.438  11.982  70.903  0.00  0.00    +0.014 A 
ATOM      8  C   UNL     1     -12.397  10.603  71.072  0.00  0.00    +0.058 A 
ATOM      9  C   UNL     1     -11.487   9.900  70.314  0.00  0.00    +0.013 A 
ATOM     10 CL   UNL     1     -13.571   9.821  72.123  0.00  0.00    -0.082 Cl
ATOM     11  C   UNL     1     -11.734  13.971  69.810  0.00  0.00    +0.078 C 
ATOM     12  C   UNL     1     -11.204  10.333  69.035  0.00  0.00    +0.018 A 
ATOM     13  N   UNL     1     -11.447  14.734  68.796  0.00  0.00    -0.252 NA
ENDROOT
BRANCH  11  14
ATOM     14  C   UNL     1     -12.362  14.604  70.974  0.00  0.00    +0.017 A 
ATOM     15  C   UNL     1     -11.506  15.188  71.883  0.00  0.00    +0.001 A 
ATOM     16  C   UNL     1     -12.063  15.673  73.052  0.00  0.00    +0.000 A 
ATOM     17  C   UNL     1     -13.431  15.843  73.135  0.00  0.00    +0.000 A 
ATOM     18  C   UNL     1     -14.261  15.414  72.108  0.00  0.00    +0.000 A 
ATOM     19  C   UNL     1     -13.738  14.755  71.016  0.00  0.00    +0.001 A 
ENDBRANCH  11  14
BRANCH   1  21
ATOM     20  O   UNL     1     -11.380  15.854  66.805  0.00  0.00    -0.243 OA
ATOM     21  C   UNL     1     -10.342  15.720  66.967  0.00  0.00    +0.396 C 
ATOM     22  OXT UNL     1      -9.239  16.192  66.325  0.00  0.00    -0.243 OA
ENDBRANCH   1  21
TORSDOF 2
ENDMDL
MODEL 4
REMARK VINA RESULT:      -6.9      3.182      5.022
REMARK  Name = 
REMARK  2 active torsions:
REMARK  status: ('A' for Active; 'I' for Inactive)
REMARK    1  A    between atoms: C_2  and  CA_4
REMARK    2  A    between atoms: C_6  and  C_7
REMARK                            x       y       z     vdW  Elec       q    Type
REMARK                         _______ _______ _______ _____ _____    ______ ____
ROOT
ATOM      1  CA  UNL     1     -13.307  14.802  70.884  0.00  0.00    +0.284 C 
ATOM      2  C   UNL     1     -12.837  13.399  71.617  0.00  0.00    +0.279 C 
ATOM      3  O   UNL     1     -13.677  13.131  72.505  0.00  0.00    -0.270 OA
ATOM      4  N   UNL     1     -12.454  12.289  70.795  0.00  0.00    -0.177 NA
ATOM      5  C   UNL     1     -11.791  12.367  69.544  0.00  0.00    +0.075 A 
ATOM      6  C   UNL     1     -11.099  13.472  69.060  0.00  0.00    +0.033 A 
ATOM      7  C   UNL     1     -10.202  13.292  68.019  0.00  0.00    +0.014 A 
ATOM      8  C   UNL     1     -10.184  12.068  67.361  0.00  0.00    +0.058 A 
ATOM      9  C   UNL     1     -11.270  11.239  67.538  0.00  0.00    +0.013 A 
ATOM     10 CL   UNL     1      -8.753  11.588  66.458  0.00  0.00    -0.082 Cl
ATOM     11  C   UNL     1     -11.204  14.837  69.522  0.00  0.00    +0.078 C 
ATOM     12  C   UNL     1     -11.912  11.228  68.759  0.00  0.00    +0.018 A 
ATOM     13  N   UNL     1     -11.775  15.226  70.623  0.00  0.00    -0.252 NA
ENDROOT
BRANCH  11  14
ATOM     14  C   UNL     1     -10.271  15.770  68.880  0.00  0.00    +0.017 A 
ATOM     15  C   UNL     1     -10.833  16.719  68.055  0.00  0.00    +0.001 A 
ATOM     16  C   UNL     1      -9.968  17.524  67.336  0.00  0.00    +0.000 A 
ATOM     17  C   UNL     1      -8.633  17.570  67.687  0.00  0.00    +0.000 A 
ATOM     18  C   UNL     1      -8.129  16.726  68.668  0.00  0.00    +0.000 A 
ATOM     19  C   UNL     1      -8.940  15.784  69.263  0.00  0.00    +0.001 A 
ENDBRANCH  11  14
BRANCH   1  21
ATOM     20  O   UNL     1     -14.336  16.018  72.462  0.00  0.00    -0.243 OA
ATOM     21  C   UNL     1     -13.366  15.620  72.313  0.00  0.00    +0.396 C 
ATOM     22  OXT UNL     1     -12.164  15.875  72.898  0.00  0.00    -0.243 OA
ENDBRANCH   1  21
TORSDOF 2
ENDMDL
MODEL 5
REMARK VINA RESULT:      -6.8      3.209      5.390
REMARK  Name = 
REMARK  2 active torsions:
REMARK  status: ('A' for Active; 'I' for Inactive)
REMARK    1  A    between atoms: C_2  and  CA_4
REMARK    2  A    between atoms: C_6  and  C_7
REMARK                            x       y       z     vdW  Elec       q    Type
REMARK                         _______ _______ _______ _____ _____    ______ ____
ROOT
ATOM      1  CA  UNL     1     -11.655  12.297  66.873  0.00  0.00    +0.284 C 
ATOM      2  C   UNL     1     -10.642  13.584  67.089  0.00  0.00    +0.279 C 
ATOM      3  O   UNL     1     -10.300  13.994  65.957  0.00  0.00    -0.270 OA
ATOM      4  N   UNL     1     -11.023  14.610  68.013  0.00  0.00    -0.177 NA
ATOM      5  C   UNL     1     -11.746  14.422  69.218  0.00  0.00    +0.075 A 
ATOM      6  C   UNL     1     -11.910  13.213  69.885  0.00  0.00    +0.033 A 
ATOM      7  C   UNL     1     -12.306  13.232  71.212  0.00  0.00    +0.014 A 
ATOM      8  C   UNL     1     -12.727  14.438  71.763  0.00  0.00    +0.058 A 
ATOM      9  C   UNL     1     -13.056  15.451  70.890  0.00  0.00    +0.013 A 
ATOM     10 CL   UNL     1     -12.695  14.653  73.509  0.00  0.00    -0.082 Cl
ATOM     11  C   UNL     1     -11.717  11.886  69.345  0.00  0.00    +0.078 C 
ATOM     12  C   UNL     1     -12.355  15.570  69.708  0.00  0.00    +0.018 A 
ATOM     13  N   UNL     1     -11.122  11.600  68.224  0.00  0.00    -0.252 NA
ENDROOT
BRANCH  11  14
ATOM     14  C   UNL     1     -11.872  10.803  70.322  0.00  0.00    +0.017 A 
ATOM     15  C   UNL     1     -13.157  10.550  70.749  0.00  0.00    +0.001 A 
ATOM     16  C   UNL     1     -13.314   9.626  71.765  0.00  0.00    +0.000 A 
ATOM     17  C   UNL     1     -12.266   8.786  72.089  0.00  0.00    +0.000 A 
ATOM     18  C   UNL     1     -11.022   8.945  71.494  0.00  0.00    +0.000 A 
ATOM     19  C   UNL     1     -10.794   9.984  70.616  0.00  0.00    +0.001 A 
ENDBRANCH  11  14
BRANCH   1  21
ATOM     20  O   UNL     1     -10.963  11.323  64.976  0.00  0.00    -0.243 OA
ATOM     21  C   UNL     1     -10.561  11.492  65.941  0.00  0.00    +0.396 C 
ATOM     22  OXT UNL     1      -9.496  10.962  66.603  0.00  0.00    -0.243 OA
ENDBRANCH   1  21
TORSDOF 2
ENDMDL
MODEL 6
REMARK VINA RESULT:      -6.6      3.679      5.423
REMARK  Name = 
REMARK  2 active torsions:
REMARK  status: ('A' for Active; 'I' for Inactive)
REMARK    1  A    between atoms: C_2  and  CA_4
REMARK    2  A    between atoms: C_6  and  C_7
REMARK                            x       y       z     vdW  Elec       q    Type
REMARK                         _______ _______ _______ _____ _____    ______ ____
ROOT
ATOM      1  CA  UNL     1     -12.249  14.055  71.764  0.00  0.00    +0.284 C 
ATOM      2  C   UNL     1     -12.875  14.670  70.365  0.00  0.00    +0.279 C 
ATOM      3  O   UNL     1     -13.119  15.883  70.556  0.00  0.00    -0.270 OA
ATOM      4  N   UNL     1     -12.213  14.375  69.128  0.00  0.00    -0.177 NA
ATOM      5  C   UNL     1     -11.543  13.168  68.808  0.00  0.00    +0.075 A 
ATOM      6  C   UNL     1     -11.694  11.955  69.472  0.00  0.00    +0.033 A 
ATOM      7  C   UNL     1     -11.280  10.794  68.840  0.00  0.00    +0.014 A 
ATOM      8  C   UNL     1     -10.540  10.903  67.668  0.00  0.00    +0.058 A 
ATOM      9  C   UNL     1      -9.970  12.126  67.391  0.00  0.00    +0.013 A 
ATOM     10 CL   UNL     1     -10.475   9.544  66.552  0.00  0.00    -0.082 Cl
ATOM     11  C   UNL     1     -12.247  11.746  70.790  0.00  0.00    +0.078 C 
ATOM     12  C   UNL     1     -10.638  13.275  67.760  0.00  0.00    +0.018 A 
ATOM     13  N   UNL     1     -12.921  12.619  71.480  0.00  0.00    -0.252 NA
ENDROOT
BRANCH  11  14
ATOM     14  C   UNL     1     -12.367  10.337  71.183  0.00  0.00    +0.017 A 
ATOM     15  C   UNL     1     -13.639   9.809  71.167  0.00  0.00    +0.001 A 
ATOM     16  C   UNL     1     -13.796   8.526  71.660  0.00  0.00    +0.000 A 
ATOM     17  C   UNL     1     -12.684   7.729  71.847  0.00  0.00    +0.000 A 
ATOM     18  C   UNL     1     -11.406   8.242  71.667  0.00  0.00    +0.000 A 
ATOM     19  C   UNL     1     -11.225   9.574  71.360  0.00  0.00    +0.001 A 
ENDBRANCH  11  14
BRANCH   1  21
ATOM     20  O   UNL     1     -14.402  14.010  72.388  0.00  0.00    -0.243 OA
ATOM     21  C   UNL     1     -13.539  14.562  72.655  0.00  0.00    +0.396 C 
ATOM     22  OXT UNL     1     -13.362  15.721  73.346  0.00  0.00    -0.243 OA
ENDBRANCH   1  21
TORSDOF 2
ENDMDL
MODEL 7
REMARK VINA RESULT:      -6.6      4.723      6.365
REMARK  Name = 
REMARK  2 active torsions:
REMARK  status: ('A' for Active; 'I' for Inactive)
REMARK    1  A    between atoms: C_2  and  CA_4
REMARK    2  A    between atoms: C_6  and  C_7
REMARK                            x       y       z     vdW  Elec       q    Type
REMARK                         _______ _______ _______ _____ _____    ______ ____
ROOT
ATOM      1  CA  UNL     1     -11.343  15.250  66.051  0.00  0.00    +0.284 C 
ATOM      2  C   UNL     1     -11.228  16.222  64.721  0.00  0.00    +0.279 C 
ATOM      3  O   UNL     1     -12.184  15.946  63.962  0.00  0.00    -0.270 OA
ATOM      4  N   UNL     1     -10.994  17.623  64.912  0.00  0.00    -0.177 NA
ATOM      5  C   UNL     1     -10.214  18.206  65.942  0.00  0.00    +0.075 A 
ATOM      6  C   UNL     1      -9.276  17.541  66.725  0.00  0.00    +0.033 A 
ATOM      7  C   UNL     1      -8.338  18.288  67.418  0.00  0.00    +0.014 A 
ATOM      8  C   UNL     1      -8.499  19.668  67.478  0.00  0.00    +0.058 A 
ATOM      9  C   UNL     1      -9.737  20.175  67.153  0.00  0.00    +0.013 A 
ATOM     10 CL   UNL     1      -7.110  20.690  67.829  0.00  0.00    -0.082 Cl
ATOM     11  C   UNL     1      -9.154  16.114  66.915  0.00  0.00    +0.078 C 
ATOM     12  C   UNL     1     -10.481  19.549  66.174  0.00  0.00    +0.018 A 
ATOM     13  N   UNL     1      -9.739  15.198  66.201  0.00  0.00    -0.252 NA
ENDROOT
BRANCH  11  14
ATOM     14  C   UNL     1      -8.001  15.704  67.724  0.00  0.00    +0.017 A 
ATOM     15  C   UNL     1      -8.284  15.203  68.975  0.00  0.00    +0.001 A 
ATOM     16  C   UNL     1      -7.211  14.934  69.805  0.00  0.00    +0.000 A 
ATOM     17  C   UNL     1      -5.938  14.874  69.273  0.00  0.00    +0.000 A 
ATOM     18  C   UNL     1      -5.709  15.203  67.943  0.00  0.00    +0.000 A 
ATOM     19  C   UNL     1      -6.741  15.657  67.149  0.00  0.00    +0.001 A 
ENDBRANCH  11  14
BRANCH   1  21
ATOM     20  O   UNL     1     -12.239  13.310  65.373  0.00  0.00    -0.243 OA
ATOM     21  C   UNL     1     -11.374  13.877  65.142  0.00  0.00    +0.396 C 
ATOM     22  OXT UNL     1     -10.220  13.575  64.487  0.00  0.00    -0.243 OA
ENDBRANCH   1  21
TORSDOF 2
ENDMDL
MODEL 8
REMARK VINA RESULT:      -6.5      3.448      5.003
REMARK  Name = 
REMARK  2 active torsions:
REMARK  status: ('A' for Active; 'I' for Inactive)
REMARK    1  A    between atoms: C_2  and  CA_4
REMARK    2  A    between atoms: C_6  and  C_7
REMARK                            x       y       z     vdW  Elec       q    Type
REMARK                         _______ _______ _______ _____ _____    ______ ____
ROOT
ATOM      1  CA  UNL     1     -10.722  13.457  68.856  0.00  0.00    +0.284 C 
ATOM      2  C   UNL     1     -11.604  13.414  67.460  0.00  0.00    +0.279 C 
ATOM      3  O   UNL     1     -11.648  14.578  67.000  0.00  0.00    -0.270 OA
ATOM      4  N   UNL     1     -11.314  12.395  66.495  0.00  0.00    -0.177 NA
ATOM      5  C   UNL     1     -10.891  11.072  66.780  0.00  0.00    +0.075 A 
ATOM      6  C   UNL     1     -11.011  10.429  68.007  0.00  0.00    +0.033 A 
ATOM      7  C   UNL     1     -10.908   9.048  68.048  0.00  0.00    +0.014 A 
ATOM      8  C   UNL     1     -10.480   8.380  66.906  0.00  0.00    +0.058 A 
ATOM      9  C   UNL     1      -9.859   9.128  65.931  0.00  0.00    +0.013 A 
ATOM     10 CL   UNL     1     -10.858   6.673  66.706  0.00  0.00    -0.082 Cl
ATOM     11  C   UNL     1     -11.236  11.043  69.295  0.00  0.00    +0.078 C 
ATOM     12  C   UNL     1     -10.274  10.426  65.717  0.00  0.00    +0.018 A 
ATOM     13  N   UNL     1     -11.607  12.274  69.498  0.00  0.00    -0.252 NA
ENDROOT
BRANCH  11  14
ATOM     14  C   UNL     1     -11.417  10.094  70.399  0.00  0.00    +0.017 A 
ATOM     15  C   UNL     1     -10.268   9.533  70.911  0.00  0.00    +0.001 A 
ATOM     16  C   UNL     1     -10.420   8.538  71.861  0.00  0.00    +0.000 A 
ATOM     17  C   UNL     1     -11.645   8.366  72.475  0.00  0.00    +0.000 A 
ATOM     18  C   UNL     1     -12.754   9.094  72.061  0.00  0.00    +0.000 A 
ATOM     19  C   UNL     1     -12.663   9.954  70.987  0.00  0.00    +0.001 A 
ENDBRANCH  11  14
BRANCH   1  21
ATOM     20  O   UNL     1     -11.146  15.542  69.564  0.00  0.00    -0.243 OA
ATOM     21  C   UNL     1     -11.677  14.626  69.516  0.00  0.00    +0.396 C 
ATOM     22  OXT UNL     1     -12.821  14.190  70.110  0.00  0.00    -0.243 OA
ENDBRANCH   1  21
TORSDOF 2
ENDMDL
MODEL 9
REMARK VINA RESULT:      -6.4      2.381      3.344
REMARK  Name = 
REMARK  2 active torsions:
REMARK  status: ('A' for Active; 'I' for Inactive)
REMARK    1  A    between atoms: C_2  and  CA_4
REMARK    2  A    between atoms: C_6  and  C_7
REMARK                            x       y       z     vdW  Elec       q    Type
REMARK                         _______ _______ _______ _____ _____    ______ ____
ROOT
ATOM      1  CA  UNL     1     -10.744  14.117  65.618  0.00  0.00    +0.284 C 
ATOM      2  C   UNL     1     -11.683  12.869  65.081  0.00  0.00    +0.279 C 
ATOM      3  O   UNL     1     -11.594  12.834  63.833  0.00  0.00    -0.270 OA
ATOM      4  N   UNL     1     -11.571  11.597  65.730  0.00  0.00    -0.177 NA
ATOM      5  C   UNL     1     -11.314  11.382  67.107  0.00  0.00    +0.075 A 
ATOM      6  C   UNL     1     -11.464  12.326  68.117  0.00  0.00    +0.033 A 
ATOM      7  C   UNL     1     -11.541  11.890  69.430  0.00  0.00    +0.014 A 
ATOM      8  C   UNL     1     -11.254  10.558  69.706  0.00  0.00    +0.058 A 
ATOM      9  C   UNL     1     -10.582   9.842  68.739  0.00  0.00    +0.013 A 
ATOM     10 CL   UNL     1     -11.860   9.827  71.187  0.00  0.00    -0.082 Cl
ATOM     11  C   UNL     1     -11.550  13.760  67.964  0.00  0.00    +0.078 C 
ATOM     12  C   UNL     1     -10.833  10.115  67.410  0.00  0.00    +0.018 A 
ATOM     13  N   UNL     1     -11.748  14.396  66.847  0.00  0.00    -0.252 NA
ENDROOT
BRANCH  11  14
ATOM     14  C   UNL     1     -11.806  14.491  69.211  0.00  0.00    +0.017 A 
ATOM     15  C   UNL     1     -11.094  15.657  69.387  0.00  0.00    +0.001 A 
ATOM     16  C   UNL     1     -11.218  16.293  70.609  0.00  0.00    +0.000 A 
ATOM     17  C   UNL     1     -12.246  15.937  71.460  0.00  0.00    +0.000 A 
ATOM     18  C   UNL     1     -13.078  14.866  71.158  0.00  0.00    +0.000 A 
ATOM     19  C   UNL     1     -12.849  14.100  70.034  0.00  0.00    +0.001 A 
ENDBRANCH  11  14
BRANCH   1  21
ATOM     20  O   UNL     1     -10.930  16.097  64.582  0.00  0.00    -0.243 OA
ATOM     21  C   UNL     1     -11.508  15.211  64.652  0.00  0.00    +0.396 C 
ATOM     22  OXT UNL     1     -12.804  14.928  64.348  0.00  0.00    -0.243 OA
ENDBRANCH   1  21
TORSDOF 2
ENDMDL
