MODEL 1
REMARK VINA RESULT:      -7.7      0.000      0.000
REMARK  Name = 
REMARK  3 active torsions:
REMARK  status: ('A' for Active; 'I' for Inactive)
REMARK    1  A    between atoms: C_3  and  C_5
REMARK    2  A    between atoms: N_15  and  C1*_16
REMARK    3  A    between atoms: C4*_18  and  C5*_19
REMARK                            x       y       z     vdW  Elec       q    Type
REMARK                         _______ _______ _______ _____ _____    ______ ____
ROOT
ATOM      1  C   UNL     1      -5.243  19.418  68.963  0.00  0.00    +0.095 A 
ATOM      2  C   UNL     1      -6.079  18.403  69.412  0.00  0.00    +0.110 A 
ATOM      3  N   UNL     1      -6.935  18.120  68.410  0.00  0.00    -0.195 N 
ATOM      4  C   UNL     1      -8.335  17.831  68.557  0.00  0.00    +0.256 A 
ATOM      5  N   UNL     1      -9.318  18.756  68.431  0.00  0.00    -0.190 NA
ATOM      6  C   UNL     1     -10.297  18.677  67.485  0.00  0.00    +0.193 A 
ATOM      7  N   UNL     1     -11.138  19.710  67.104  0.00  0.00    -0.105 NA
ATOM      8  C   UNL     1     -10.433  17.492  66.773  0.00  0.00    +0.152 A 
ATOM      9  N   UNL     1     -10.430  17.127  65.452  0.00  0.00    -0.219 NA
ATOM     10  C   UNL     1     -10.371  15.760  65.399  0.00  0.00    +0.182 A 
ATOM     11  N   UNL     1     -10.134  15.397  66.589  0.00  0.00    -0.269 N 
ATOM     12  C   UNL     1      -9.800  16.407  67.386  0.00  0.00    +0.171 A 
ATOM     13  N   UNL     1      -8.789  16.570  68.274  0.00  0.00    -0.191 NA
ATOM     14  N   UNL     1      -6.301  18.521  67.302  0.00  0.00    -0.161 NA
ATOM     15  C   UNL     1      -5.493  19.559  67.610  0.00  0.00    +0.127 A 
ENDROOT
BRANCH  11  16
ATOM     16  C1* UNL     1     -10.028  13.992  67.322  0.00  0.00    +0.241 C 
ATOM     17  C2* UNL     1     -11.688  13.976  67.736  0.00  0.00    +0.234 C 
ATOM     18  O2* UNL     1     -11.341  14.117  69.192  0.00  0.00    -0.216 OA
ATOM     19  C3* UNL     1     -11.588  12.288  67.874  0.00  0.00    +0.216 C 
ATOM     20  O3* UNL     1     -10.185  12.147  68.375  0.00  0.00    -0.218 OA
ATOM     21  C4* UNL     1     -11.218  12.148  66.208  0.00  0.00    +0.183 C 
ATOM     22  O4* UNL     1     -10.215  13.239  66.061  0.00  0.00    -0.331 OA
BRANCH  21  23
ATOM     23  C5* UNL     1     -12.400  13.178  65.674  0.00  0.00    +0.214 C 
ATOM     24  O5* UNL     1     -13.114  12.504  64.733  0.00  0.00    -0.218 OA
ENDBRANCH  21  23
ENDBRANCH  11  16
BRANCH   1  27
ATOM     25  C   UNL     1      -2.812  20.530  71.417  0.00  0.00    +0.139 C 
ATOM     26  N   UNL     1      -3.304  20.089  70.425  0.00  0.00    -0.200 NA
ATOM     27  C   UNL     1      -4.528  20.412  69.783  0.00  0.00    +0.268 C 
ATOM     28  O   UNL     1      -5.230  21.241  70.414  0.00  0.00    -0.268 OA
ENDBRANCH   1  27
TORSDOF 3
ENDMDL
MODEL 2
REMARK VINA RESULT:      -7.4      1.784      1.981
REMARK  Name = 
REMARK  3 active torsions:
REMARK  status: ('A' for Active; 'I' for Inactive)
REMARK    1  A    between atoms: C_3  and  C_5
REMARK    2  A    between atoms: N_15  and  C1*_16
REMARK    3  A    between atoms: C4*_18  and  C5*_19
REMARK                            x       y       z     vdW  Elec       q    Type
REMARK                         _______ _______ _______ _____ _____    ______ ____
ROOT
ATOM      1  C   UNL     1      -4.901  19.360  66.068  0.00  0.00    +0.095 A 
ATOM      2  C   UNL     1      -5.431  18.230  66.678  0.00  0.00    +0.110 A 
ATOM      3  N   UNL     1      -6.637  18.005  66.120  0.00  0.00    -0.195 N 
ATOM      4  C   UNL     1      -7.820  17.583  66.819  0.00  0.00    +0.256 A 
ATOM      5  N   UNL     1      -8.775  18.430  67.275  0.00  0.00    -0.190 NA
ATOM      6  C   UNL     1     -10.070  18.389  66.852  0.00  0.00    +0.193 A 
ATOM      7  N   UNL     1     -11.013  19.388  67.038  0.00  0.00    -0.105 NA
ATOM      8  C   UNL     1     -10.486  17.297  66.101  0.00  0.00    +0.152 A 
ATOM      9  N   UNL     1     -11.063  17.104  64.873  0.00  0.00    -0.219 NA
ATOM     10  C   UNL     1     -11.007  15.765  64.594  0.00  0.00    +0.182 A 
ATOM     11  N   UNL     1     -10.259  15.275  65.491  0.00  0.00    -0.269 N 
ATOM     12  C   UNL     1      -9.625  16.200  66.205  0.00  0.00    +0.171 A 
ATOM     13  N   UNL     1      -8.328  16.334  66.575  0.00  0.00    -0.191 NA
ATOM     14  N   UNL     1      -6.569  18.595  64.922  0.00  0.00    -0.161 NA
ATOM     15  C   UNL     1      -5.729  19.651  64.998  0.00  0.00    +0.127 A 
ENDROOT
BRANCH  11  16
ATOM     16  C1* UNL     1      -9.811  13.803  65.883  0.00  0.00    +0.241 C 
ATOM     17  C2* UNL     1     -11.275  13.474  66.704  0.00  0.00    +0.234 C 
ATOM     18  O2* UNL     1     -10.546  13.430  68.018  0.00  0.00    -0.216 OA
ATOM     19  C3* UNL     1     -10.974  11.819  66.479  0.00  0.00    +0.216 C 
ATOM     20  O3* UNL     1      -9.480  11.810  66.560  0.00  0.00    -0.218 OA
ATOM     21  C4* UNL     1     -11.079  12.004  64.780  0.00  0.00    +0.183 C 
ATOM     22  O4* UNL     1     -10.272  13.242  64.592  0.00  0.00    -0.331 OA
BRANCH  21  23
ATOM     23  C5* UNL     1     -12.460  12.919  64.785  0.00  0.00    +0.214 C 
ATOM     24  O5* UNL     1     -12.850  13.049  63.487  0.00  0.00    -0.218 OA
ENDBRANCH  21  23
ENDBRANCH  11  16
BRANCH   1  27
ATOM     25  C   UNL     1      -2.882  20.828  68.702  0.00  0.00    +0.139 C 
ATOM     26  N   UNL     1      -3.321  20.063  67.900  0.00  0.00    -0.200 NA
ATOM     27  C   UNL     1      -3.916  20.299  66.632  0.00  0.00    +0.268 C 
ATOM     28  O   UNL     1      -4.069  21.516  66.362  0.00  0.00    -0.268 OA
ENDBRANCH   1  27
TORSDOF 3
ENDMDL
MODEL 3
REMARK VINA RESULT:      -7.3      2.011      8.207
REMARK  Name = 
REMARK  3 active torsions:
REMARK  status: ('A' for Active; 'I' for Inactive)
REMARK    1  A    between atoms: C_3  and  C_5
REMARK    2  A    between atoms: N_15  and  C1*_16
REMARK    3  A    between atoms: C4*_18  and  C5*_19
REMARK                            x       y       z     vdW  Elec       q    Type
REMARK                         _______ _______ _______ _____ _____    ______ ____
ROOT
ATOM      1  C   UNL     1     -11.268  13.784  66.273  0.00  0.00    +0.095 A 
ATOM      2  C   UNL     1      -9.984  14.247  66.012  0.00  0.00    +0.110 A 
ATOM      3  N   UNL     1      -9.817  15.379  66.723  0.00  0.00    -0.195 N 
ATOM      4  C   UNL     1      -9.146  16.566  66.268  0.00  0.00    +0.256 A 
ATOM      5  N   UNL     1      -9.778  17.631  65.716  0.00  0.00    -0.190 NA
ATOM      6  C   UNL     1      -9.748  18.879  66.262  0.00  0.00    +0.193 A 
ATOM      7  N   UNL     1     -10.595  19.925  65.933  0.00  0.00    -0.105 NA
ATOM      8  C   UNL     1      -8.851  19.128  67.293  0.00  0.00    +0.152 A 
ATOM      9  N   UNL     1      -8.929  19.587  68.582  0.00  0.00    -0.219 NA
ATOM     10  C   UNL     1      -7.711  19.381  69.171  0.00  0.00    +0.182 A 
ATOM     11  N   UNL     1      -7.069  18.660  68.350  0.00  0.00    -0.269 N 
ATOM     12  C   UNL     1      -7.830  18.176  67.375  0.00  0.00    +0.171 A 
ATOM     13  N   UNL     1      -7.964  16.930  66.857  0.00  0.00    -0.191 NA
ATOM     14  N   UNL     1     -10.692  15.277  67.730  0.00  0.00    -0.161 NA
ATOM     15  C   UNL     1     -11.754  14.551  67.317  0.00  0.00    +0.127 A 
ENDROOT
BRANCH  11  16
ATOM     16  C1* UNL     1      -5.583  18.103  68.286  0.00  0.00    +0.241 C 
ATOM     17  C2* UNL     1      -5.003  19.479  67.452  0.00  0.00    +0.234 C 
ATOM     18  O2* UNL     1      -4.758  18.649  66.223  0.00  0.00    -0.216 OA
ATOM     19  C3* UNL     1      -3.446  19.106  68.017  0.00  0.00    +0.216 C 
ATOM     20  O3* UNL     1      -3.525  17.612  68.037  0.00  0.00    -0.218 OA
ATOM     21  C4* UNL     1      -3.947  19.353  69.635  0.00  0.00    +0.183 C 
ATOM     22  O4* UNL     1      -5.250  18.632  69.629  0.00  0.00    -0.331 OA
BRANCH  21  23
ATOM     23  C5* UNL     1      -4.747  20.777  69.361  0.00  0.00    +0.214 C 
ATOM     24  O5* UNL     1      -5.024  21.314  70.580  0.00  0.00    -0.218 OA
ENDBRANCH  21  23
ENDBRANCH  11  16
BRANCH   1  27
ATOM     25  C   UNL     1     -11.958  11.680  63.398  0.00  0.00    +0.139 C 
ATOM     26  N   UNL     1     -11.524  12.083  64.432  0.00  0.00    -0.200 NA
ATOM     27  C   UNL     1     -12.106  12.941  65.403  0.00  0.00    +0.268 C 
ATOM     28  O   UNL     1     -13.224  13.403  65.067  0.00  0.00    -0.268 OA
ENDBRANCH   1  27
TORSDOF 3
ENDMDL
MODEL 4
REMARK VINA RESULT:      -7.2      2.306      3.129
REMARK  Name = 
REMARK  3 active torsions:
REMARK  status: ('A' for Active; 'I' for Inactive)
REMARK    1  A    between atoms: C_3  and  C_5
REMARK    2  A    between atoms: N_15  and  C1*_16
REMARK    3  A    between atoms: C4*_18  and  C5*_19
REMARK                            x       y       z     vdW  Elec       q    Type
REMARK                         _______ _______ _______ _____ _____    ______ ____
ROOT
ATOM      1  C   UNL     1      -7.216  19.340  66.444  0.00  0.00    +0.095 A 
ATOM      2  C   UNL     1      -6.969  17.973  66.463  0.00  0.00    +0.110 A 
ATOM      3  N   UNL     1      -8.161  17.356  66.591  0.00  0.00    -0.195 N 
ATOM      4  C   UNL     1      -8.425  16.201  67.404  0.00  0.00    +0.256 A 
ATOM      5  N   UNL     1      -8.913  16.257  68.668  0.00  0.00    -0.190 NA
ATOM      6  C   UNL     1     -10.102  15.701  69.033  0.00  0.00    +0.193 A 
ATOM      7  N   UNL     1     -10.796  15.971  70.202  0.00  0.00    -0.105 NA
ATOM      8  C   UNL     1     -10.734  14.846  68.139  0.00  0.00    +0.152 A 
ATOM      9  N   UNL     1     -11.960  14.781  67.531  0.00  0.00    -0.219 NA
ATOM     10  C   UNL     1     -11.892  13.818  66.561  0.00  0.00    +0.182 A 
ATOM     11  N   UNL     1     -10.663  13.523  66.478  0.00  0.00    -0.269 N 
ATOM     12  C   UNL     1      -9.879  14.366  67.142  0.00  0.00    +0.171 A 
ATOM     13  N   UNL     1      -8.740  15.014  66.795  0.00  0.00    -0.191 NA
ATOM     14  N   UNL     1      -9.049  18.237  66.120  0.00  0.00    -0.161 NA
ATOM     15  C   UNL     1      -8.588  19.488  66.341  0.00  0.00    +0.127 A 
ENDROOT
BRANCH  11  16
ATOM     16  C1* UNL     1      -9.831  12.443  65.664  0.00  0.00    +0.241 C 
ATOM     17  C2* UNL     1     -11.129  11.329  65.631  0.00  0.00    +0.234 C 
ATOM     18  O2* UNL     1     -10.371  10.395  66.532  0.00  0.00    -0.216 OA
ATOM     19  C3* UNL     1     -10.412  10.606  64.274  0.00  0.00    +0.216 C 
ATOM     20  O3* UNL     1      -8.966  10.813  64.599  0.00  0.00    -0.218 OA
ATOM     21  C4* UNL     1     -10.619  12.043  63.366  0.00  0.00    +0.183 C 
ATOM     22  O4* UNL     1     -10.172  13.058  64.360  0.00  0.00    -0.331 OA
BRANCH  21  23
ATOM     23  C5* UNL     1     -12.190  12.313  63.814  0.00  0.00    +0.214 C 
ATOM     24  O5* UNL     1     -12.585  13.457  63.191  0.00  0.00    -0.218 OA
ENDBRANCH  21  23
ENDBRANCH  11  16
BRANCH   1  27
ATOM     25  C   UNL     1      -4.386  20.773  68.207  0.00  0.00    +0.139 C 
ATOM     26  N   UNL     1      -5.046  20.127  67.453  0.00  0.00    -0.200 NA
ATOM     27  C   UNL     1      -6.293  20.418  66.840  0.00  0.00    +0.268 C 
ATOM     28  O   UNL     1      -6.809  21.497  67.225  0.00  0.00    -0.268 OA
ENDBRANCH   1  27
TORSDOF 3
ENDMDL
MODEL 5
REMARK VINA RESULT:      -7.1      5.512      8.506
REMARK  Name = 
REMARK  3 active torsions:
REMARK  status: ('A' for Active; 'I' for Inactive)
REMARK    1  A    between atoms: C_3  and  C_5
REMARK    2  A    between atoms: N_15  and  C1*_16
REMARK    3  A    between atoms: C4*_18  and  C5*_19
REMARK                            x       y       z     vdW  Elec       q    Type
REMARK                         _______ _______ _______ _____ _____    ______ ____
ROOT
ATOM      1  C   UNL     1     -10.710   8.244  71.322  0.00  0.00    +0.095 A 
ATOM      2  C   UNL     1     -11.630   8.669  70.371  0.00  0.00    +0.110 A 
ATOM      3  N   UNL     1     -11.201   9.859  69.907  0.00  0.00    -0.195 N 
ATOM      4  C   UNL     1     -12.032  10.993  69.609  0.00  0.00    +0.256 A 
ATOM      5  N   UNL     1     -12.268  12.010  70.474  0.00  0.00    -0.190 NA
ATOM      6  C   UNL     1     -11.920  13.302  70.217  0.00  0.00    +0.193 A 
ATOM      7  N   UNL     1     -11.854  14.322  71.153  0.00  0.00    -0.105 NA
ATOM      8  C   UNL     1     -11.519  13.635  68.930  0.00  0.00    +0.152 A 
ATOM      9  N   UNL     1     -10.415  14.209  68.355  0.00  0.00    -0.219 NA
ATOM     10  C   UNL     1     -10.519  14.046  67.000  0.00  0.00    +0.182 A 
ATOM     11  N   UNL     1     -11.490  13.247  66.841  0.00  0.00    -0.269 N 
ATOM     12  C   UNL     1     -11.894  12.684  67.975  0.00  0.00    +0.171 A 
ATOM     13  N   UNL     1     -12.164  11.398  68.306  0.00  0.00    -0.191 NA
ATOM     14  N   UNL     1      -9.883   9.857  70.140  0.00  0.00    -0.161 NA
ATOM     15  C   UNL     1      -9.632   9.107  71.235  0.00  0.00    +0.127 A 
ENDROOT
BRANCH  11  16
ATOM     16  C1* UNL     1     -12.260  12.673  65.577  0.00  0.00    +0.241 C 
ATOM     17  C2* UNL     1     -11.256  13.502  64.469  0.00  0.00    +0.234 C 
ATOM     18  O2* UNL     1     -12.408  14.377  64.057  0.00  0.00    -0.216 OA
ATOM     19  C3* UNL     1     -11.696  12.363  63.290  0.00  0.00    +0.216 C 
ATOM     20  O3* UNL     1     -13.103  12.078  63.713  0.00  0.00    -0.218 OA
ATOM     21  C4* UNL     1     -10.960  11.108  64.192  0.00  0.00    +0.183 C 
ATOM     22  O4* UNL     1     -11.453  11.431  65.559  0.00  0.00    -0.331 OA
BRANCH  21  23
ATOM     23  C5* UNL     1      -9.555  11.921  64.519  0.00  0.00    +0.214 C 
ATOM     24  O5* UNL     1      -8.680  11.009  65.023  0.00  0.00    -0.218 OA
ENDBRANCH  21  23
ENDBRANCH  11  16
BRANCH   1  27
ATOM     25  C   UNL     1      -9.878   6.531  74.411  0.00  0.00    +0.139 C 
ATOM     26  N   UNL     1     -10.147   7.382  73.622  0.00  0.00    -0.200 NA
ATOM     27  C   UNL     1     -10.954   7.333  72.454  0.00  0.00    +0.268 C 
ATOM     28  O   UNL     1     -11.381   6.184  72.181  0.00  0.00    -0.268 OA
ENDBRANCH   1  27
TORSDOF 3
ENDMDL
MODEL 6
REMARK VINA RESULT:      -6.7      2.129      2.754
REMARK  Name = 
REMARK  3 active torsions:
REMARK  status: ('A' for Active; 'I' for Inactive)
REMARK    1  A    between atoms: C_3  and  C_5
REMARK    2  A    between atoms: N_15  and  C1*_16
REMARK    3  A    between atoms: C4*_18  and  C5*_19
REMARK                            x       y       z     vdW  Elec       q    Type
REMARK                         _______ _______ _______ _____ _____    ______ ____
ROOT
ATOM      1  C   UNL     1      -6.490  18.347  69.325  0.00  0.00    +0.095 A 
ATOM      2  C   UNL     1      -6.546  16.976  69.104  0.00  0.00    +0.110 A 
ATOM      3  N   UNL     1      -7.760  16.707  68.584  0.00  0.00    -0.195 N 
ATOM      4  C   UNL     1      -8.580  15.573  68.908  0.00  0.00    +0.256 A 
ATOM      5  N   UNL     1      -9.566  15.589  69.838  0.00  0.00    -0.190 NA
ATOM      6  C   UNL     1     -10.874  15.345  69.542  0.00  0.00    +0.193 A 
ATOM      7  N   UNL     1     -11.955  15.635  70.359  0.00  0.00    -0.105 NA
ATOM      8  C   UNL     1     -11.183  14.834  68.289  0.00  0.00    +0.152 A 
ATOM      9  N   UNL     1     -11.989  15.200  67.242  0.00  0.00    -0.219 NA
ATOM     10  C   UNL     1     -11.675  14.400  66.177  0.00  0.00    +0.182 A 
ATOM     11  N   UNL     1     -10.624  13.786  66.527  0.00  0.00    -0.269 N 
ATOM     12  C   UNL     1     -10.080  14.275  67.636  0.00  0.00    +0.171 A 
ATOM     13  N   UNL     1      -8.807  14.618  67.950  0.00  0.00    -0.191 NA
ATOM     14  N   UNL     1      -8.152  17.860  68.028  0.00  0.00    -0.161 NA
ATOM     15  C   UNL     1      -7.610  18.887  68.719  0.00  0.00    +0.127 A 
ENDROOT
BRANCH  11  16
ATOM     16  C1* UNL     1      -9.739  12.639  65.878  0.00  0.00    +0.241 C 
ATOM     17  C2* UNL     1     -10.995  11.482  65.977  0.00  0.00    +0.234 C 
ATOM     18  O2* UNL     1     -10.221  10.708  67.007  0.00  0.00    -0.216 OA
ATOM     19  C3* UNL     1     -10.226  10.611  64.740  0.00  0.00    +0.216 C 
ATOM     20  O3* UNL     1      -8.795  10.915  65.055  0.00  0.00    -0.218 OA
ATOM     21  C4* UNL     1     -10.467  11.904  63.644  0.00  0.00    +0.183 C 
ATOM     22  O4* UNL     1     -10.076  13.060  64.498  0.00  0.00    -0.331 OA
BRANCH  21  23
ATOM     23  C5* UNL     1     -12.055  12.172  64.029  0.00  0.00    +0.214 C 
ATOM     24  O5* UNL     1     -12.518  13.112  63.160  0.00  0.00    -0.218 OA
ENDBRANCH  21  23
ENDBRANCH  11  16
BRANCH   1  27
ATOM     25  C   UNL     1      -4.651  21.177  70.658  0.00  0.00    +0.139 C 
ATOM     26  N   UNL     1      -5.537  20.471  70.287  0.00  0.00    -0.200 NA
ATOM     27  C   UNL     1      -5.659  19.057  70.313  0.00  0.00    +0.268 C 
ATOM     28  O   UNL     1      -4.628  18.466  70.722  0.00  0.00    -0.268 OA
ENDBRANCH   1  27
TORSDOF 3
ENDMDL
MODEL 7
REMARK VINA RESULT:      -6.7      4.850      8.852
REMARK  Name = 
REMARK  3 active torsions:
REMARK  status: ('A' for Active; 'I' for Inactive)
REMARK    1  A    between atoms: C_3  and  C_5
REMARK    2  A    between atoms: N_15  and  C1*_16
REMARK    3  A    between atoms: C4*_18  and  C5*_19
REMARK                            x       y       z     vdW  Elec       q    Type
REMARK                         _______ _______ _______ _____ _____    ______ ____
ROOT
ATOM      1  C   UNL     1     -10.720   8.228  71.639  0.00  0.00    +0.095 A 
ATOM      2  C   UNL     1      -9.928   9.309  71.270  0.00  0.00    +0.110 A 
ATOM      3  N   UNL     1     -10.481   9.849  70.167  0.00  0.00    -0.195 N 
ATOM      4  C   UNL     1      -9.763  10.351  69.027  0.00  0.00    +0.256 A 
ATOM      5  N   UNL     1      -9.515   9.627  67.908  0.00  0.00    -0.190 NA
ATOM      6  C   UNL     1      -9.975   9.983  66.675  0.00  0.00    +0.193 A 
ATOM      7  N   UNL     1     -10.021   9.159  65.561  0.00  0.00    -0.105 NA
ATOM      8  C   UNL     1     -10.521  11.250  66.513  0.00  0.00    +0.152 A 
ATOM      9  N   UNL     1     -11.712  11.764  66.072  0.00  0.00    -0.219 NA
ATOM     10  C   UNL     1     -11.729  13.097  66.380  0.00  0.00    +0.182 A 
ATOM     11  N   UNL     1     -10.725  13.271  67.134  0.00  0.00    -0.269 N 
ATOM     12  C   UNL     1     -10.176  12.132  67.542  0.00  0.00    +0.171 A 
ATOM     13  N   UNL     1      -9.786  11.696  68.764  0.00  0.00    -0.191 NA
ATOM     14  N   UNL     1     -11.766   9.482  70.219  0.00  0.00    -0.161 NA
ATOM     15  C   UNL     1     -11.858   8.293  70.855  0.00  0.00    +0.127 A 
ENDROOT
BRANCH  11  16
ATOM     16  C1* UNL     1     -10.043  14.540  67.801  0.00  0.00    +0.241 C 
ATOM     17  C2* UNL     1      -8.999  14.797  66.471  0.00  0.00    +0.234 C 
ATOM     18  O2* UNL     1      -7.810  14.428  67.314  0.00  0.00    -0.216 OA
ATOM     19  C3* UNL     1      -8.848  16.414  66.962  0.00  0.00    +0.216 C 
ATOM     20  O3* UNL     1      -8.945  16.248  68.446  0.00  0.00    -0.218 OA
ATOM     21  C4* UNL     1     -10.516  16.681  66.683  0.00  0.00    +0.183 C 
ATOM     22  O4* UNL     1     -11.094  15.457  67.304  0.00  0.00    -0.331 OA
BRANCH  21  23
ATOM     23  C5* UNL     1     -10.571  15.943  65.202  0.00  0.00    +0.214 C 
ATOM     24  O5* UNL     1     -11.180  16.813  64.351  0.00  0.00    -0.218 OA
ENDBRANCH  21  23
ENDBRANCH  11  16
BRANCH   1  27
ATOM     25  C   UNL     1      -9.926   6.346  74.639  0.00  0.00    +0.139 C 
ATOM     26  N   UNL     1     -10.522   6.949  73.801  0.00  0.00    -0.200 NA
ATOM     27  C   UNL     1     -10.304   7.037  72.400  0.00  0.00    +0.268 C 
ATOM     28  O   UNL     1      -9.270   6.442  72.009  0.00  0.00    -0.268 OA
ENDBRANCH   1  27
TORSDOF 3
ENDMDL
MODEL 8
REMARK VINA RESULT:      -6.6      2.808      3.267
REMARK  Name = 
REMARK  3 active torsions:
REMARK  status: ('A' for Active; 'I' for Inactive)
REMARK    1  A    between atoms: C_3  and  C_5
REMARK    2  A    between atoms: N_15  and  C1*_16
REMARK    3  A    between atoms: C4*_18  and  C5*_19
REMARK                            x       y       z     vdW  Elec       q    Type
REMARK                         _______ _______ _______ _____ _____    ______ ____
ROOT
ATOM      1  C   UNL     1      -4.252  19.671  64.528  0.00  0.00    +0.095 A 
ATOM      2  C   UNL     1      -4.632  18.590  65.314  0.00  0.00    +0.110 A 
ATOM      3  N   UNL     1      -5.969  18.465  65.198  0.00  0.00    -0.195 N 
ATOM      4  C   UNL     1      -6.878  18.144  66.264  0.00  0.00    +0.256 A 
ATOM      5  N   UNL     1      -7.556  19.069  66.988  0.00  0.00    -0.190 NA
ATOM      6  C   UNL     1      -8.917  19.134  67.023  0.00  0.00    +0.193 A 
ATOM      7  N   UNL     1      -9.662  20.208  67.482  0.00  0.00    -0.105 NA
ATOM      8  C   UNL     1      -9.643  18.078  66.488  0.00  0.00    +0.152 A 
ATOM      9  N   UNL     1     -10.612  17.930  65.529  0.00  0.00    -0.219 NA
ATOM     10  C   UNL     1     -10.756  16.590  65.289  0.00  0.00    +0.182 A 
ATOM     11  N   UNL     1      -9.790  16.042  65.899  0.00  0.00    -0.269 N 
ATOM     12  C   UNL     1      -8.885  16.914  66.331  0.00  0.00    +0.171 A 
ATOM     13  N   UNL     1      -7.533  16.941  66.242  0.00  0.00    -0.191 NA
ATOM     14  N   UNL     1      -6.262  19.044  64.029  0.00  0.00    -0.161 NA
ATOM     15  C   UNL     1      -5.365  20.026  63.787  0.00  0.00    +0.127 A 
ENDROOT
BRANCH  11  16
ATOM     16  C1* UNL     1      -9.352  14.539  66.163  0.00  0.00    +0.241 C 
ATOM     17  C2* UNL     1     -10.469  14.339  67.443  0.00  0.00    +0.234 C 
ATOM     18  O2* UNL     1      -9.341  14.239  68.431  0.00  0.00    -0.216 OA
ATOM     19  C3* UNL     1     -10.393  12.663  67.183  0.00  0.00    +0.216 C 
ATOM     20  O3* UNL     1      -8.966  12.529  66.752  0.00  0.00    -0.218 OA
ATOM     21  C4* UNL     1     -11.057  12.850  65.616  0.00  0.00    +0.183 C 
ATOM     22  O4* UNL     1     -10.269  14.014  65.125  0.00  0.00    -0.331 OA
BRANCH  21  23
ATOM     23  C5* UNL     1     -12.277  13.878  66.059  0.00  0.00    +0.214 C 
ATOM     24  O5* UNL     1     -13.221  13.813  65.081  0.00  0.00    -0.218 OA
ENDBRANCH  21  23
ENDBRANCH  11  16
BRANCH   1  27
ATOM     25  C   UNL     1      -2.277  22.689  64.121  0.00  0.00    +0.139 C 
ATOM     26  N   UNL     1      -3.127  21.925  64.459  0.00  0.00    -0.200 NA
ATOM     27  C   UNL     1      -3.065  20.527  64.702  0.00  0.00    +0.268 C 
ATOM     28  O   UNL     1      -1.949  20.015  64.438  0.00  0.00    -0.268 OA
ENDBRANCH   1  27
TORSDOF 3
ENDMDL
MODEL 9
REMARK VINA RESULT:      -6.6      6.289      9.364
REMARK  Name = 
REMARK  3 active torsions:
REMARK  status: ('A' for Active; 'I' for Inactive)
REMARK    1  A    between atoms: C_3  and  C_5
REMARK    2  A    between atoms: N_15  and  C1*_16
REMARK    3  A    between atoms: C4*_18  and  C5*_19
REMARK                            x       y       z     vdW  Elec       q    Type
REMARK                         _______ _______ _______ _____ _____    ______ ____
ROOT
ATOM      1  C   UNL     1     -10.923   7.443  72.158  0.00  0.00    +0.095 A 
ATOM      2  C   UNL     1     -10.699   8.768  71.804  0.00  0.00    +0.110 A 
ATOM      3  N   UNL     1     -10.585   8.807  70.462  0.00  0.00    -0.195 N 
ATOM      4  C   UNL     1      -9.647   9.605  69.721  0.00  0.00    +0.256 A 
ATOM      5  N   UNL     1      -8.446   9.154  69.283  0.00  0.00    -0.190 NA
ATOM      6  C   UNL     1      -8.106   9.102  67.964  0.00  0.00    +0.193 A 
ATOM      7  N   UNL     1      -7.044   8.390  67.430  0.00  0.00    -0.105 NA
ATOM      8  C   UNL     1      -8.924   9.747  67.045  0.00  0.00    +0.152 A 
ATOM      9  N   UNL     1      -9.615   9.392  65.915  0.00  0.00    -0.219 NA
ATOM     10  C   UNL     1     -10.437  10.435  65.586  0.00  0.00    +0.182 A 
ATOM     11  N   UNL     1     -10.380  11.222  66.577  0.00  0.00    -0.269 N 
ATOM     12  C   UNL     1      -9.775  10.688  67.633  0.00  0.00    +0.171 A 
ATOM     13  N   UNL     1     -10.114  10.633  68.945  0.00  0.00    -0.191 NA
ATOM     14  N   UNL     1     -11.241   7.721  70.036  0.00  0.00    -0.161 NA
ATOM     15  C   UNL     1     -11.154   6.757  70.979  0.00  0.00    +0.127 A 
ENDROOT
BRANCH  11  16
ATOM     16  C1* UNL     1     -10.971  12.663  66.888  0.00  0.00    +0.241 C 
ATOM     17  C2* UNL     1     -10.229  13.368  65.518  0.00  0.00    +0.234 C 
ATOM     18  O2* UNL     1      -9.324  14.176  66.405  0.00  0.00    -0.216 OA
ATOM     19  C3* UNL     1     -11.394  14.600  65.579  0.00  0.00    +0.216 C 
ATOM     20  O3* UNL     1     -11.604  14.690  67.058  0.00  0.00    -0.218 OA
ATOM     21  C4* UNL     1     -12.643  13.469  65.272  0.00  0.00    +0.183 C 
ATOM     22  O4* UNL     1     -12.246  12.369  66.193  0.00  0.00    -0.331 OA
BRANCH  21  23
ATOM     23  C5* UNL     1     -11.877  12.689  64.028  0.00  0.00    +0.214 C 
ATOM     24  O5* UNL     1     -12.835  12.011  63.339  0.00  0.00    -0.218 OA
ENDBRANCH  21  23
ENDBRANCH  11  16
BRANCH   1  27
ATOM     25  C   UNL     1      -8.787   6.536  74.948  0.00  0.00    +0.139 C 
ATOM     26  N   UNL     1      -9.447   7.166  74.181  0.00  0.00    -0.200 NA
ATOM     27  C   UNL     1     -10.603   6.797  73.443  0.00  0.00    +0.268 C 
ATOM     28  O   UNL     1     -10.921   5.589  73.569  0.00  0.00    -0.268 OA
ENDBRANCH   1  27
TORSDOF 3
ENDMDL
