MODEL 1
REMARK VINA RESULT:      -4.8      0.000      0.000
REMARK  Name = 
REMARK  3 active torsions:
REMARK  status: ('A' for Active; 'I' for Inactive)
REMARK    1  A    between atoms: N_2  and  C_3
REMARK    2  A    between atoms: C_3  and  C_4
REMARK    3  A    between atoms: C_4  and  C_6
REMARK                            x       y       z     vdW  Elec       q    Type
REMARK                         _______ _______ _______ _____ _____    ______ ____
ROOT
ATOM      1  C   UNL     1     -12.108  15.827  70.795  0.00  0.00    +0.012 A 
ATOM      2  C   UNL     1     -11.800  16.178  72.111  0.00  0.00    +0.040 A 
ATOM      3  C   UNL     1     -12.701  16.017  73.142  0.00  0.00    +0.196 A 
ATOM      4  O   UNL     1     -12.515  16.469  74.428  0.00  0.00    -0.287 OA
ATOM      5  C   UNL     1     -13.962  15.503  72.861  0.00  0.00    +0.042 A 
ATOM      6  C   UNL     1     -14.297  15.186  71.559  0.00  0.00    +0.003 A 
ATOM      7  C   UNL     1     -13.260  15.131  70.667  0.00  0.00    -0.002 A 
ENDROOT
BRANCH   1   8
ATOM      8  C   UNL     1     -10.798  15.324  69.983  0.00  0.00    +0.192 C 
ATOM      9  O   UNL     1     -11.333  13.926  69.693  0.00  0.00    -0.217 OA
BRANCH   8  10
ATOM     10  C   UNL     1     -11.405  15.874  68.544  0.00  0.00    +0.126 C 
BRANCH  10  12
ATOM     11  C   UNL     1     -10.390  17.432  67.538  0.00  0.00    +0.108 C 
ATOM     12  N   UNL     1     -11.000  17.267  68.523  0.00  0.00    -0.213 NA
ENDBRANCH  10  12
ENDBRANCH   8  10
ENDBRANCH   1   8
TORSDOF 3
ENDMDL
MODEL 2
REMARK VINA RESULT:      -4.8      2.505      4.567
REMARK  Name = 
REMARK  3 active torsions:
REMARK  status: ('A' for Active; 'I' for Inactive)
REMARK    1  A    between atoms: N_2  and  C_3
REMARK    2  A    between atoms: C_3  and  C_4
REMARK    3  A    between atoms: C_4  and  C_6
REMARK                            x       y       z     vdW  Elec       q    Type
REMARK                         _______ _______ _______ _____ _____    ______ ____
ROOT
ATOM      1  C   UNL     1     -12.734  14.551  70.946  0.00  0.00    +0.012 A 
ATOM      2  C   UNL     1     -12.449  15.749  70.286  0.00  0.00    +0.040 A 
ATOM      3  C   UNL     1     -11.692  15.789  69.135  0.00  0.00    +0.196 A 
ATOM      4  O   UNL     1     -11.260  16.940  68.517  0.00  0.00    -0.287 OA
ATOM      5  C   UNL     1     -11.181  14.602  68.623  0.00  0.00    +0.042 A 
ATOM      6  C   UNL     1     -11.419  13.412  69.284  0.00  0.00    +0.003 A 
ATOM      7  C   UNL     1     -12.389  13.445  70.249  0.00  0.00    -0.002 A 
ENDROOT
BRANCH   1   8
ATOM      8  C   UNL     1     -14.179  14.594  71.678  0.00  0.00    +0.192 C 
ATOM      9  O   UNL     1     -13.876  13.473  72.668  0.00  0.00    -0.217 OA
BRANCH   8  10
ATOM     10  C   UNL     1     -13.659  15.724  72.771  0.00  0.00    +0.126 C 
BRANCH  10  12
ATOM     11  C   UNL     1     -12.400  15.699  74.469  0.00  0.00    +0.108 C 
ATOM     12  N   UNL     1     -12.814  14.956  73.667  0.00  0.00    -0.213 NA
ENDBRANCH  10  12
ENDBRANCH   8  10
ENDBRANCH   1   8
TORSDOF 3
ENDMDL
MODEL 3
REMARK VINA RESULT:      -4.8      6.276      7.194
REMARK  Name = 
REMARK  3 active torsions:
REMARK  status: ('A' for Active; 'I' for Inactive)
REMARK    1  A    between atoms: N_2  and  C_3
REMARK    2  A    between atoms: C_3  and  C_4
REMARK    3  A    between atoms: C_4  and  C_6
REMARK                            x       y       z     vdW  Elec       q    Type
REMARK                         _______ _______ _______ _____ _____    ______ ____
ROOT
ATOM      1  C   UNL     1     -11.328  13.568  65.922  0.00  0.00    +0.012 A 
ATOM      2  C   UNL     1     -11.690  14.598  65.050  0.00  0.00    +0.040 A 
ATOM      3  C   UNL     1     -10.960  15.762  64.947  0.00  0.00    +0.196 A 
ATOM      4  O   UNL     1     -11.337  16.866  64.217  0.00  0.00    -0.287 OA
ATOM      5  C   UNL     1      -9.835  15.925  65.748  0.00  0.00    +0.042 A 
ATOM      6  C   UNL     1      -9.484  14.934  66.644  0.00  0.00    +0.003 A 
ATOM      7  C   UNL     1     -10.107  13.726  66.479  0.00  0.00    -0.002 A 
ENDROOT
BRANCH   1   8
ATOM      8  C   UNL     1     -11.739  12.112  65.340  0.00  0.00    +0.192 C 
ATOM      9  O   UNL     1     -13.073  12.560  64.751  0.00  0.00    -0.217 OA
BRANCH   8  10
ATOM     10  C   UNL     1     -10.983  12.409  63.897  0.00  0.00    +0.126 C 
BRANCH  10  12
ATOM     11  C   UNL     1     -10.064  10.543  64.273  0.00  0.00    +0.108 C 
ATOM     12  N   UNL     1     -10.651  11.081  63.416  0.00  0.00    -0.213 NA
ENDBRANCH  10  12
ENDBRANCH   8  10
ENDBRANCH   1   8
TORSDOF 3
ENDMDL
MODEL 4
REMARK VINA RESULT:      -4.7      4.901      5.986
REMARK  Name = 
REMARK  3 active torsions:
REMARK  status: ('A' for Active; 'I' for Inactive)
REMARK    1  A    between atoms: N_2  and  C_3
REMARK    2  A    between atoms: C_3  and  C_4
REMARK    3  A    between atoms: C_4  and  C_6
REMARK                            x       y       z     vdW  Elec       q    Type
REMARK                         _______ _______ _______ _____ _____    ______ ____
ROOT
ATOM      1  C   UNL     1     -10.300  15.584  66.215  0.00  0.00    +0.012 A 
ATOM      2  C   UNL     1     -10.899  15.380  64.970  0.00  0.00    +0.040 A 
ATOM      3  C   UNL     1     -11.995  14.559  64.810  0.00  0.00    +0.196 A 
ATOM      4  O   UNL     1     -12.544  14.206  63.599  0.00  0.00    -0.287 OA
ATOM      5  C   UNL     1     -12.512  13.902  65.920  0.00  0.00    +0.042 A 
ATOM      6  C   UNL     1     -11.909  14.061  67.153  0.00  0.00    +0.003 A 
ATOM      7  C   UNL     1     -11.009  15.088  67.254  0.00  0.00    -0.002 A 
ENDROOT
BRANCH   1   8
ATOM      8  C   UNL     1      -9.664  17.070  66.343  0.00  0.00    +0.192 C 
ATOM      9  O   UNL     1     -10.656  17.735  65.393  0.00  0.00    -0.217 OA
BRANCH   8  10
ATOM     10  C   UNL     1     -10.630  17.437  67.636  0.00  0.00    +0.126 C 
BRANCH  10  12
ATOM     11  C   UNL     1      -9.900  19.279  68.373  0.00  0.00    +0.108 C 
ATOM     12  N   UNL     1     -10.690  18.887  67.605  0.00  0.00    -0.213 NA
ENDBRANCH  10  12
ENDBRANCH   8  10
ENDBRANCH   1   8
TORSDOF 3
ENDMDL
MODEL 5
REMARK VINA RESULT:      -4.7      3.224      4.655
REMARK  Name = 
REMARK  3 active torsions:
REMARK  status: ('A' for Active; 'I' for Inactive)
REMARK    1  A    between atoms: N_2  and  C_3
REMARK    2  A    between atoms: C_3  and  C_4
REMARK    3  A    between atoms: C_4  and  C_6
REMARK                            x       y       z     vdW  Elec       q    Type
REMARK                         _______ _______ _______ _____ _____    ______ ____
ROOT
ATOM      1  C   UNL     1     -12.568  13.707  70.826  0.00  0.00    +0.012 A 
ATOM      2  C   UNL     1     -12.987  12.680  71.675  0.00  0.00    +0.040 A 
ATOM      3  C   UNL     1     -12.805  11.350  71.362  0.00  0.00    +0.196 A 
ATOM      4  O   UNL     1     -13.316  10.295  72.082  0.00  0.00    -0.287 OA
ATOM      5  C   UNL     1     -12.199  11.019  70.155  0.00  0.00    +0.042 A 
ATOM      6  C   UNL     1     -11.813  12.021  69.285  0.00  0.00    +0.003 A 
ATOM      7  C   UNL     1     -11.793  13.289  69.800  0.00  0.00    -0.002 A 
ENDROOT
BRANCH   1   8
ATOM      8  C   UNL     1     -12.122  15.029  71.652  0.00  0.00    +0.192 C 
ATOM      9  O   UNL     1     -12.529  16.023  70.569  0.00  0.00    -0.217 OA
BRANCH   8  10
ATOM     10  C   UNL     1     -13.614  15.163  72.359  0.00  0.00    +0.126 C 
BRANCH  10  12
ATOM     11  C   UNL     1     -12.495  15.562  74.108  0.00  0.00    +0.108 C 
ATOM     12  N   UNL     1     -13.368  16.037  73.491  0.00  0.00    -0.213 NA
ENDBRANCH  10  12
ENDBRANCH   8  10
ENDBRANCH   1   8
TORSDOF 3
ENDMDL
MODEL 6
REMARK VINA RESULT:      -4.6      2.166      2.684
REMARK  Name = 
REMARK  3 active torsions:
REMARK  status: ('A' for Active; 'I' for Inactive)
REMARK    1  A    between atoms: N_2  and  C_3
REMARK    2  A    between atoms: C_3  and  C_4
REMARK    3  A    between atoms: C_4  and  C_6
REMARK                            x       y       z     vdW  Elec       q    Type
REMARK                         _______ _______ _______ _____ _____    ______ ____
ROOT
ATOM      1  C   UNL     1     -11.788  15.163  70.751  0.00  0.00    +0.012 A 
ATOM      2  C   UNL     1     -12.730  14.167  71.015  0.00  0.00    +0.040 A 
ATOM      3  C   UNL     1     -13.428  14.114  72.203  0.00  0.00    +0.196 A 
ATOM      4  O   UNL     1     -14.261  13.087  72.582  0.00  0.00    -0.287 OA
ATOM      5  C   UNL     1     -13.176  15.075  73.175  0.00  0.00    +0.042 A 
ATOM      6  C   UNL     1     -12.220  16.046  72.947  0.00  0.00    +0.003 A 
ATOM      7  C   UNL     1     -11.785  16.168  71.655  0.00  0.00    -0.002 A 
ENDROOT
BRANCH   1   8
ATOM      8  C   UNL     1     -11.727  15.532  69.173  0.00  0.00    +0.192 C 
ATOM      9  O   UNL     1     -10.210  15.426  69.057  0.00  0.00    -0.217 OA
BRANCH   8  10
ATOM     10  C   UNL     1     -11.888  13.943  68.735  0.00  0.00    +0.126 C 
BRANCH  10  12
ATOM     11  C   UNL     1     -11.751  12.997  66.849  0.00  0.00    +0.108 C 
ATOM     12  N   UNL     1     -12.107  14.015  67.302  0.00  0.00    -0.213 NA
ENDBRANCH  10  12
ENDBRANCH   8  10
ENDBRANCH   1   8
TORSDOF 3
ENDMDL
MODEL 7
REMARK VINA RESULT:      -4.5      3.291      5.941
REMARK  Name = 
REMARK  3 active torsions:
REMARK  status: ('A' for Active; 'I' for Inactive)
REMARK    1  A    between atoms: N_2  and  C_3
REMARK    2  A    between atoms: C_3  and  C_4
REMARK    3  A    between atoms: C_4  and  C_6
REMARK                            x       y       z     vdW  Elec       q    Type
REMARK                         _______ _______ _______ _____ _____    ______ ____
ROOT
ATOM      1  C   UNL     1     -10.572  14.399  66.703  0.00  0.00    +0.012 A 
ATOM      2  C   UNL     1     -10.663  15.523  65.879  0.00  0.00    +0.040 A 
ATOM      3  C   UNL     1     -11.505  15.567  64.789  0.00  0.00    +0.196 A 
ATOM      4  O   UNL     1     -11.540  16.583  63.861  0.00  0.00    -0.287 OA
ATOM      5  C   UNL     1     -12.277  14.451  64.489  0.00  0.00    +0.042 A 
ATOM      6  C   UNL     1     -12.172  13.315  65.269  0.00  0.00    +0.003 A 
ATOM      7  C   UNL     1     -11.521  13.466  66.464  0.00  0.00    -0.002 A 
ENDROOT
BRANCH   1   8
ATOM      8  C   UNL     1     -10.240  14.800  68.238  0.00  0.00    +0.192 C 
ATOM      9  O   UNL     1      -9.907  16.258  67.939  0.00  0.00    -0.217 OA
BRANCH   8  10
ATOM     10  C   UNL     1     -11.818  15.204  68.536  0.00  0.00    +0.126 C 
BRANCH  10  12
ATOM     11  C   UNL     1     -12.219  15.748  70.539  0.00  0.00    +0.108 C 
ATOM     12  N   UNL     1     -11.713  16.200  69.586  0.00  0.00    -0.213 NA
ENDBRANCH  10  12
ENDBRANCH   8  10
ENDBRANCH   1   8
TORSDOF 3
ENDMDL
MODEL 8
REMARK VINA RESULT:      -4.4      4.474      6.105
REMARK  Name = 
REMARK  3 active torsions:
REMARK  status: ('A' for Active; 'I' for Inactive)
REMARK    1  A    between atoms: N_2  and  C_3
REMARK    2  A    between atoms: C_3  and  C_4
REMARK    3  A    between atoms: C_4  and  C_6
REMARK                            x       y       z     vdW  Elec       q    Type
REMARK                         _______ _______ _______ _____ _____    ______ ____
ROOT
ATOM      1  C   UNL     1     -11.153  13.795  66.261  0.00  0.00    +0.012 A 
ATOM      2  C   UNL     1     -11.692  14.521  67.326  0.00  0.00    +0.040 A 
ATOM      3  C   UNL     1     -11.215  15.764  67.682  0.00  0.00    +0.196 A 
ATOM      4  O   UNL     1     -11.604  16.466  68.800  0.00  0.00    -0.287 OA
ATOM      5  C   UNL     1     -10.153  16.308  66.969  0.00  0.00    +0.042 A 
ATOM      6  C   UNL     1      -9.582  15.588  65.937  0.00  0.00    +0.003 A 
ATOM      7  C   UNL     1     -10.290  14.502  65.497  0.00  0.00    -0.002 A 
ENDROOT
BRANCH   1   8
ATOM      8  C   UNL     1     -12.270  12.877  65.530  0.00  0.00    +0.192 C 
ATOM      9  O   UNL     1     -13.207  14.030  65.187  0.00  0.00    -0.217 OA
BRANCH   8  10
ATOM     10  C   UNL     1     -11.520  13.027  64.062  0.00  0.00    +0.126 C 
BRANCH  10  12
ATOM     11  C   UNL     1     -10.591  11.192  63.572  0.00  0.00    +0.108 C 
ATOM     12  N   UNL     1     -11.642  11.699  63.489  0.00  0.00    -0.213 NA
ENDBRANCH  10  12
ENDBRANCH   8  10
ENDBRANCH   1   8
TORSDOF 3
ENDMDL
MODEL 9
REMARK VINA RESULT:      -4.3      3.453      4.772
REMARK  Name = 
REMARK  3 active torsions:
REMARK  status: ('A' for Active; 'I' for Inactive)
REMARK    1  A    between atoms: N_2  and  C_3
REMARK    2  A    between atoms: C_3  and  C_4
REMARK    3  A    between atoms: C_4  and  C_6
REMARK                            x       y       z     vdW  Elec       q    Type
REMARK                         _______ _______ _______ _____ _____    ______ ____
ROOT
ATOM      1  C   UNL     1     -10.845  13.657  67.349  0.00  0.00    +0.012 A 
ATOM      2  C   UNL     1     -11.619  13.410  68.485  0.00  0.00    +0.040 A 
ATOM      3  C   UNL     1     -12.068  14.426  69.301  0.00  0.00    +0.196 A 
ATOM      4  O   UNL     1     -12.711  14.244  70.504  0.00  0.00    -0.287 OA
ATOM      5  C   UNL     1     -11.728  15.738  68.992  0.00  0.00    +0.042 A 
ATOM      6  C   UNL     1     -10.931  15.998  67.894  0.00  0.00    +0.003 A 
ATOM      7  C   UNL     1     -10.765  14.964  67.013  0.00  0.00    -0.002 A 
ENDROOT
BRANCH   1   8
ATOM      8  C   UNL     1     -11.123  12.566  66.182  0.00  0.00    +0.192 C 
ATOM      9  O   UNL     1     -12.021  11.671  67.028  0.00  0.00    -0.217 OA
BRANCH   8  10
ATOM     10  C   UNL     1     -12.443  13.401  65.632  0.00  0.00    +0.126 C 
BRANCH  10  12
ATOM     11  C   UNL     1     -12.092  12.835  63.626  0.00  0.00    +0.108 C 
ATOM     12  N   UNL     1     -12.867  12.630  64.478  0.00  0.00    -0.213 NA
ENDBRANCH  10  12
ENDBRANCH   8  10
ENDBRANCH   1   8
TORSDOF 3
ENDMDL
