MODEL 1
REMARK VINA RESULT:      -8.4      0.000      0.000
REMARK  Name = 
REMARK  4 active torsions:
REMARK  status: ('A' for Active; 'I' for Inactive)
REMARK    1  A    between atoms: N_12  and  C_13
REMARK    2  A    between atoms: C_13  and  C_14
REMARK    3  A    between atoms: C_19  and  C_20
REMARK    4  A    between atoms: C_20  and  N_21
REMARK                            x       y       z     vdW  Elec       q    Type
REMARK                         _______ _______ _______ _____ _____    ______ ____
ROOT
ATOM      1  C   UNL     1      -8.044  17.916  66.753  0.00  0.00    +0.022 C 
ATOM      2  C   UNL     1      -8.579  17.906  68.375  0.00  0.00    +0.018 C 
ATOM      3  C   UNL     1      -9.339  19.337  68.417  0.00  0.00    +0.001 C 
ATOM      4  C   UNL     1     -10.563  19.348  67.625  0.00  0.00    +0.000 C 
ATOM      5  C   UNL     1     -10.277  19.036  66.206  0.00  0.00    +0.000 C 
ATOM      6  C   UNL     1      -9.468  17.859  65.996  0.00  0.00    +0.002 C 
ENDROOT
BRANCH   1   7
ATOM      7  C   UNL     1      -7.877  19.524  66.664  0.00  0.00    +0.101 C 
BRANCH   7  10
ATOM      8  O   UNL     1      -6.438  19.266  64.311  0.00  0.00    -0.274 OA
ATOM      9  C   UNL     1      -6.265  19.677  64.787  0.00  0.00    +0.231 C 
ATOM     10  N   UNL     1      -6.556  19.795  66.141  0.00  0.00    -0.230 N 
ATOM     11  C   UNL     1      -5.957  20.997  66.423  0.00  0.00    +0.231 C 
ATOM     12  O   UNL     1      -6.149  21.937  67.250  0.00  0.00    -0.274 OA
ATOM     13  C   UNL     1      -4.421  20.873  65.990  0.00  0.00    +0.086 C 
ATOM     14  C   UNL     1      -4.404  19.145  65.916  0.00  0.00    +0.009 C 
ATOM     15  C   UNL     1      -2.814  19.001  65.713  0.00  0.00    +0.001 C 
ATOM     16  C   UNL     1      -4.267  19.263  66.083  0.00  0.00    +0.009 C 
ATOM     17  C   UNL     1      -4.785  17.736  66.067  0.00  0.00    +0.001 C 
ATOM     18  C   UNL     1      -4.552  18.577  67.395  0.00  0.00    +0.001 C 
ATOM     19  C   UNL     1      -4.701  19.980  64.554  0.00  0.00    +0.086 C 
ENDBRANCH   7  10
ENDBRANCH   1   7
BRANCH   2  20
ATOM     20  C   UNL     1      -9.950  17.098  68.147  0.00  0.00    +0.072 C 
BRANCH  20  21
ATOM     21  N   UNL     1     -10.362  16.337  69.214  0.00  0.00    -0.270 NA
ATOM     22  C   UNL     1     -11.715  15.890  69.286  0.00  0.00    +0.094 C 
ATOM     23  C   UNL     1     -11.857  14.644  68.418  0.00  0.00    +0.110 C 
ATOM     24  N   UNL     1     -11.050  14.819  67.209  0.00  0.00    -0.290 N 
ATOM     25  C   UNL     1     -11.391  13.927  66.133  0.00  0.00    +0.140 A 
ATOM     26  C   UNL     1     -11.236  12.550  66.171  0.00  0.00    +0.040 A 
ATOM     27  C   UNL     1     -11.132  12.018  64.902  0.00  0.00    +0.050 A 
ATOM     28  C   UNL     1     -10.561  10.791  64.625  0.00  0.00    +0.008 A 
ATOM     29  C   UNL     1     -10.194   9.981  65.693  0.00  0.00    +0.001 A 
ATOM     30  C   UNL     1     -10.359  10.485  66.977  0.00  0.00    +0.000 A 
ATOM     31  S   UNL     1     -12.049  13.148  63.995  0.00  0.00    +0.014 S 
ATOM     32  C   UNL     1     -10.596  11.830  67.179  0.00  0.00    +0.003 A 
ATOM     33  N   UNL     1     -12.324  14.288  65.219  0.00  0.00    -0.194 NA
ATOM     34  C   UNL     1      -9.618  14.863  67.514  0.00  0.00    +0.110 C 
ATOM     35  C   UNL     1      -9.549  15.124  69.019  0.00  0.00    +0.094 C 
ENDBRANCH  20  21
ENDBRANCH   2  20
TORSDOF 4
ENDMDL
MODEL 2
REMARK VINA RESULT:      -8.0      3.306      5.346
REMARK  Name = 
REMARK  4 active torsions:
REMARK  status: ('A' for Active; 'I' for Inactive)
REMARK    1  A    between atoms: N_12  and  C_13
REMARK    2  A    between atoms: C_13  and  C_14
REMARK    3  A    between atoms: C_19  and  C_20
REMARK    4  A    between atoms: C_20  and  N_21
REMARK                            x       y       z     vdW  Elec       q    Type
REMARK                         _______ _______ _______ _____ _____    ______ ____
ROOT
ATOM      1  C   UNL     1      -9.441  15.021  66.282  0.00  0.00    +0.022 C 
ATOM      2  C   UNL     1      -9.659  13.951  67.595  0.00  0.00    +0.018 C 
ATOM      3  C   UNL     1     -11.271  14.030  67.743  0.00  0.00    +0.001 C 
ATOM      4  C   UNL     1     -11.970  13.396  66.632  0.00  0.00    +0.000 C 
ATOM      5  C   UNL     1     -11.608  14.036  65.346  0.00  0.00    +0.000 C 
ATOM      6  C   UNL     1     -10.190  14.184  65.123  0.00  0.00    +0.002 C 
ENDROOT
BRANCH   1   7
ATOM      7  C   UNL     1     -10.708  15.960  66.647  0.00  0.00    +0.101 C 
BRANCH   7  10
ATOM      8  O   UNL     1     -10.474  18.531  65.643  0.00  0.00    -0.274 OA
ATOM      9  C   UNL     1     -10.437  18.397  66.280  0.00  0.00    +0.231 C 
ATOM     10  N   UNL     1     -10.191  17.254  67.033  0.00  0.00    -0.230 N 
ATOM     11  C   UNL     1     -10.444  17.728  68.296  0.00  0.00    +0.231 C 
ATOM     12  O   UNL     1     -10.853  17.234  69.388  0.00  0.00    -0.274 OA
ATOM     13  C   UNL     1      -9.496  18.999  68.523  0.00  0.00    +0.086 C 
ATOM     14  C   UNL     1      -8.417  18.642  67.219  0.00  0.00    +0.009 C 
ATOM     15  C   UNL     1      -7.334  19.775  67.582  0.00  0.00    +0.001 C 
ATOM     16  C   UNL     1      -8.336  18.637  67.452  0.00  0.00    +0.009 C 
ATOM     17  C   UNL     1      -7.722  17.943  66.131  0.00  0.00    +0.001 C 
ATOM     18  C   UNL     1      -7.593  17.333  67.594  0.00  0.00    +0.001 C 
ATOM     19  C   UNL     1      -9.666  19.645  66.944  0.00  0.00    +0.086 C 
ENDBRANCH   7  10
ENDBRANCH   1   7
BRANCH   2  20
ATOM     20  C   UNL     1      -9.727  12.582  66.753  0.00  0.00    +0.072 C 
BRANCH  20  21
ATOM     21  N   UNL     1      -8.520  11.956  66.560  0.00  0.00    -0.270 NA
ATOM     22  C   UNL     1      -7.652  11.731  67.670  0.00  0.00    +0.094 C 
ATOM     23  C   UNL     1      -8.119  10.476  68.399  0.00  0.00    +0.110 C 
ATOM     24  N   UNL     1      -9.583  10.455  68.407  0.00  0.00    -0.290 N 
ATOM     25  C   UNL     1     -10.160   9.568  69.382  0.00  0.00    +0.140 A 
ATOM     26  C   UNL     1     -10.029   8.188  69.369  0.00  0.00    +0.040 A 
ATOM     27  C   UNL     1     -11.059   7.576  70.055  0.00  0.00    +0.050 A 
ATOM     28  C   UNL     1     -11.436   6.261  69.864  0.00  0.00    +0.008 A 
ATOM     29  C   UNL     1     -10.653   5.464  69.038  0.00  0.00    +0.001 A 
ATOM     30  C   UNL     1      -9.573   6.059  68.396  0.00  0.00    +0.000 A 
ATOM     31  S   UNL     1     -11.448   8.783  71.209  0.00  0.00    +0.014 S 
ATOM     32  C   UNL     1      -9.458   7.435  68.345  0.00  0.00    +0.003 A 
ATOM     33  N   UNL     1     -10.444  10.019  70.629  0.00  0.00    -0.194 NA
ATOM     34  C   UNL     1     -10.131  10.290  67.058  0.00  0.00    +0.110 C 
ATOM     35  C   UNL     1      -8.966  10.622  66.124  0.00  0.00    +0.094 C 
ENDBRANCH  20  21
ENDBRANCH   2  20
TORSDOF 4
ENDMDL
MODEL 3
REMARK VINA RESULT:      -7.8      2.720      4.662
REMARK  Name = 
REMARK  4 active torsions:
REMARK  status: ('A' for Active; 'I' for Inactive)
REMARK    1  A    between atoms: N_12  and  C_13
REMARK    2  A    between atoms: C_13  and  C_14
REMARK    3  A    between atoms: C_19  and  C_20
REMARK    4  A    between atoms: C_20  and  N_21
REMARK                            x       y       z     vdW  Elec       q    Type
REMARK                         _______ _______ _______ _____ _____    ______ ____
ROOT
ATOM      1  C   UNL     1      -9.492  15.312  67.646  0.00  0.00    +0.022 C 
ATOM      2  C   UNL     1     -10.684  14.261  68.273  0.00  0.00    +0.018 C 
ATOM      3  C   UNL     1     -11.821  14.430  67.130  0.00  0.00    +0.001 C 
ATOM      4  C   UNL     1     -11.434  13.832  65.857  0.00  0.00    +0.000 C 
ATOM      5  C   UNL     1     -10.188  14.445  65.342  0.00  0.00    +0.000 C 
ATOM      6  C   UNL     1      -9.108  14.513  66.297  0.00  0.00    +0.002 C 
ENDROOT
BRANCH   1   7
ATOM      7  C   UNL     1     -10.544  16.321  66.942  0.00  0.00    +0.101 C 
BRANCH   7  10
ATOM      8  O   UNL     1     -10.540  18.810  65.725  0.00  0.00    -0.274 OA
ATOM      9  C   UNL     1     -10.448  18.731  66.366  0.00  0.00    +0.231 C 
ATOM     10  N   UNL     1     -10.079  17.669  67.184  0.00  0.00    -0.230 N 
ATOM     11  C   UNL     1     -10.265  18.231  68.422  0.00  0.00    +0.231 C 
ATOM     12  O   UNL     1     -10.562  17.806  69.578  0.00  0.00    -0.274 OA
ATOM     13  C   UNL     1      -9.382  19.565  68.475  0.00  0.00    +0.086 C 
ATOM     14  C   UNL     1      -8.383  19.162  67.122  0.00  0.00    +0.009 C 
ATOM     15  C   UNL     1      -7.347  20.378  67.310  0.00  0.00    +0.001 C 
ATOM     16  C   UNL     1      -8.284  19.180  67.347  0.00  0.00    +0.009 C 
ATOM     17  C   UNL     1      -7.729  18.415  66.040  0.00  0.00    +0.001 C 
ATOM     18  C   UNL     1      -7.455  17.935  67.531  0.00  0.00    +0.001 C 
ATOM     19  C   UNL     1      -9.707  20.069  66.868  0.00  0.00    +0.086 C 
ENDBRANCH   7  10
ENDBRANCH   1   7
BRANCH   2  20
ATOM     20  C   UNL     1     -10.132  12.895  67.629  0.00  0.00    +0.072 C 
BRANCH  20  21
ATOM     21  N   UNL     1     -10.363  11.764  68.373  0.00  0.00    -0.270 NA
ATOM     22  C   UNL     1     -11.312  10.800  67.922  0.00  0.00    +0.094 C 
ATOM     23  C   UNL     1     -10.637   9.908  66.886  0.00  0.00    +0.110 C 
ATOM     24  N   UNL     1      -9.757  10.734  66.057  0.00  0.00    -0.290 N 
ATOM     25  C   UNL     1      -9.371  10.125  64.812  0.00  0.00    +0.140 A 
ATOM     26  C   UNL     1      -8.590   8.985  64.700  0.00  0.00    +0.040 A 
ATOM     27  C   UNL     1      -7.955   8.927  63.476  0.00  0.00    +0.050 A 
ATOM     28  C   UNL     1      -6.820   8.176  63.232  0.00  0.00    +0.008 A 
ATOM     29  C   UNL     1      -6.368   7.323  64.232  0.00  0.00    +0.001 A 
ATOM     30  C   UNL     1      -7.046   7.329  65.445  0.00  0.00    +0.000 A 
ATOM     31  S   UNL     1      -9.062   9.784  62.487  0.00  0.00    +0.014 S 
ATOM     32  C   UNL     1      -7.937   8.340  65.748  0.00  0.00    +0.003 A 
ATOM     33  N   UNL     1     -10.123  10.313  63.700  0.00  0.00    -0.194 NA
ATOM     34  C   UNL     1      -8.635  11.274  66.827  0.00  0.00    +0.110 C 
ATOM     35  C   UNL     1      -9.049  11.103  68.289  0.00  0.00    +0.094 C 
ENDBRANCH  20  21
ENDBRANCH   2  20
TORSDOF 4
ENDMDL
MODEL 4
REMARK VINA RESULT:      -7.8      2.644      3.758
REMARK  Name = 
REMARK  4 active torsions:
REMARK  status: ('A' for Active; 'I' for Inactive)
REMARK    1  A    between atoms: N_12  and  C_13
REMARK    2  A    between atoms: C_13  and  C_14
REMARK    3  A    between atoms: C_19  and  C_20
REMARK    4  A    between atoms: C_20  and  N_21
REMARK                            x       y       z     vdW  Elec       q    Type
REMARK                         _______ _______ _______ _____ _____    ______ ____
ROOT
ATOM      1  C   UNL     1      -8.787  17.302  68.342  0.00  0.00    +0.022 C 
ATOM      2  C   UNL     1      -9.801  16.728  67.093  0.00  0.00    +0.018 C 
ATOM      3  C   UNL     1      -8.720  15.875  66.238  0.00  0.00    +0.001 C 
ATOM      4  C   UNL     1      -8.274  14.673  66.933  0.00  0.00    +0.000 C 
ATOM      5  C   UNL     1      -7.648  15.014  68.231  0.00  0.00    +0.000 C 
ATOM      6  C   UNL     1      -8.424  15.904  69.062  0.00  0.00    +0.002 C 
ENDROOT
BRANCH   1   7
ATOM      7  C   UNL     1      -7.452  17.365  67.428  0.00  0.00    +0.101 C 
BRANCH   7  10
ATOM      8  O   UNL     1      -8.025  19.943  66.593  0.00  0.00    -0.274 OA
ATOM      9  C   UNL     1      -7.632  19.815  67.098  0.00  0.00    +0.231 C 
ATOM     10  N   UNL     1      -6.918  18.705  67.533  0.00  0.00    -0.230 N 
ATOM     11  C   UNL     1      -6.472  19.156  68.750  0.00  0.00    +0.231 C 
ATOM     12  O   UNL     1      -6.169  18.627  69.861  0.00  0.00    -0.274 OA
ATOM     13  C   UNL     1      -5.666  20.514  68.485  0.00  0.00    +0.086 C 
ATOM     14  C   UNL     1      -5.458  20.260  66.786  0.00  0.00    +0.009 C 
ATOM     15  C   UNL     1      -4.453  21.495  66.554  0.00  0.00    +0.001 C 
ATOM     16  C   UNL     1      -5.262  20.264  66.936  0.00  0.00    +0.009 C 
ATOM     17  C   UNL     1      -5.421  19.629  65.462  0.00  0.00    +0.001 C 
ATOM     18  C   UNL     1      -4.458  19.039  66.580  0.00  0.00    +0.001 C 
ATOM     19  C   UNL     1      -6.731  21.135  67.293  0.00  0.00    +0.086 C 
ENDBRANCH   7  10
ENDBRANCH   1   7
BRANCH   2  20
ATOM     20  C   UNL     1     -10.354  15.418  67.845  0.00  0.00    +0.072 C 
BRANCH  20  21
ATOM     21  N   UNL     1     -11.665  15.104  67.582  0.00  0.00    -0.270 NA
ATOM     22  C   UNL     1     -11.973  14.064  66.657  0.00  0.00    +0.094 C 
ATOM     23  C   UNL     1     -11.861  12.727  67.381  0.00  0.00    +0.110 C 
ATOM     24  N   UNL     1     -10.719  12.782  68.296  0.00  0.00    -0.290 N 
ATOM     25  C   UNL     1     -10.250  11.497  68.740  0.00  0.00    +0.140 A 
ATOM     26  C   UNL     1     -10.980  10.620  69.528  0.00  0.00    +0.040 A 
ATOM     27  C   UNL     1     -10.155   9.756  70.219  0.00  0.00    +0.050 A 
ATOM     28  C   UNL     1     -10.532   9.082  71.365  0.00  0.00    +0.008 A 
ATOM     29  C   UNL     1     -11.857   9.168  71.772  0.00  0.00    +0.001 A 
ATOM     30  C   UNL     1     -12.710   9.985  71.040  0.00  0.00    +0.000 A 
ATOM     31  S   UNL     1      -8.814   9.659  69.155  0.00  0.00    +0.014 S 
ATOM     32  C   UNL     1     -12.204  10.897  70.134  0.00  0.00    +0.003 A 
ATOM     33  N   UNL     1      -9.292  10.842  68.039  0.00  0.00    -0.194 NA
ATOM     34  C   UNL     1     -10.938  13.742  69.381  0.00  0.00    +0.110 C 
ATOM     35  C   UNL     1     -12.101  14.611  68.900  0.00  0.00    +0.094 C 
ENDBRANCH  20  21
ENDBRANCH   2  20
TORSDOF 4
ENDMDL
MODEL 5
REMARK VINA RESULT:      -7.7      2.755      3.864
REMARK  Name = 
REMARK  4 active torsions:
REMARK  status: ('A' for Active; 'I' for Inactive)
REMARK    1  A    between atoms: N_12  and  C_13
REMARK    2  A    between atoms: C_13  and  C_14
REMARK    3  A    between atoms: C_19  and  C_20
REMARK    4  A    between atoms: C_20  and  N_21
REMARK                            x       y       z     vdW  Elec       q    Type
REMARK                         _______ _______ _______ _____ _____    ______ ____
ROOT
ATOM      1  C   UNL     1      -8.532  17.382  68.295  0.00  0.00    +0.022 C 
ATOM      2  C   UNL     1      -9.628  16.823  67.109  0.00  0.00    +0.018 C 
ATOM      3  C   UNL     1      -8.631  15.886  66.241  0.00  0.00    +0.001 C 
ATOM      4  C   UNL     1      -8.218  14.686  66.957  0.00  0.00    +0.000 C 
ATOM      5  C   UNL     1      -7.520  15.034  68.216  0.00  0.00    +0.000 C 
ATOM      6  C   UNL     1      -8.212  15.990  69.047  0.00  0.00    +0.002 C 
ENDROOT
BRANCH   1   7
ATOM      7  C   UNL     1      -7.237  17.344  67.325  0.00  0.00    +0.101 C 
BRANCH   7  10
ATOM      8  O   UNL     1      -4.596  18.180  67.390  0.00  0.00    -0.274 OA
ATOM      9  C   UNL     1      -5.096  18.595  67.333  0.00  0.00    +0.231 C 
ATOM     10  N   UNL     1      -6.460  18.534  67.592  0.00  0.00    -0.230 N 
ATOM     11  C   UNL     1      -6.869  19.734  67.063  0.00  0.00    +0.231 C 
ATOM     12  O   UNL     1      -7.931  20.182  66.539  0.00  0.00    -0.274 OA
ATOM     13  C   UNL     1      -6.015  20.882  67.781  0.00  0.00    +0.086 C 
ATOM     14  C   UNL     1      -5.493  19.903  69.108  0.00  0.00    +0.009 C 
ATOM     15  C   UNL     1      -4.832  21.103  69.952  0.00  0.00    +0.001 C 
ATOM     16  C   UNL     1      -5.641  20.096  69.147  0.00  0.00    +0.009 C 
ATOM     17  C   UNL     1      -5.372  18.800  70.068  0.00  0.00    +0.001 C 
ATOM     18  C   UNL     1      -6.757  19.579  70.020  0.00  0.00    +0.001 C 
ATOM     19  C   UNL     1      -4.530  20.026  67.805  0.00  0.00    +0.086 C 
ENDBRANCH   7  10
ENDBRANCH   1   7
BRANCH   2  20
ATOM     20  C   UNL     1     -10.215  15.570  67.928  0.00  0.00    +0.072 C 
BRANCH  20  21
ATOM     21  N   UNL     1     -11.554  15.327  67.741  0.00  0.00    -0.270 NA
ATOM     22  C   UNL     1     -11.970  14.335  66.804  0.00  0.00    +0.094 C 
ATOM     23  C   UNL     1     -11.877  12.969  67.475  0.00  0.00    +0.110 C 
ATOM     24  N   UNL     1     -10.678  12.939  68.314  0.00  0.00    -0.290 N 
ATOM     25  C   UNL     1     -10.244  11.618  68.684  0.00  0.00    +0.140 A 
ATOM     26  C   UNL     1     -10.964  10.748  69.488  0.00  0.00    +0.040 A 
ATOM     27  C   UNL     1     -10.140   9.822  70.095  0.00  0.00    +0.050 A 
ATOM     28  C   UNL     1     -10.475   9.126  71.240  0.00  0.00    +0.008 A 
ATOM     29  C   UNL     1     -11.767   9.258  71.736  0.00  0.00    +0.001 A 
ATOM     30  C   UNL     1     -12.624  10.140  71.088  0.00  0.00    +0.000 A 
ATOM     31  S   UNL     1      -8.875   9.702  68.943  0.00  0.00    +0.014 S 
ATOM     32  C   UNL     1     -12.132  11.059  70.182  0.00  0.00    +0.003 A 
ATOM     33  N   UNL     1      -9.366  10.946  67.901  0.00  0.00    -0.194 NA
ATOM     34  C   UNL     1     -10.781  13.868  69.442  0.00  0.00    +0.110 C 
ATOM     35  C   UNL     1     -11.929  14.807  69.068  0.00  0.00    +0.094 C 
ENDBRANCH  20  21
ENDBRANCH   2  20
TORSDOF 4
ENDMDL
MODEL 6
REMARK VINA RESULT:      -7.6      3.462      8.753
REMARK  Name = 
REMARK  4 active torsions:
REMARK  status: ('A' for Active; 'I' for Inactive)
REMARK    1  A    between atoms: N_12  and  C_13
REMARK    2  A    between atoms: C_13  and  C_14
REMARK    3  A    between atoms: C_19  and  C_20
REMARK    4  A    between atoms: C_20  and  N_21
REMARK                            x       y       z     vdW  Elec       q    Type
REMARK                         _______ _______ _______ _____ _____    ______ ____
ROOT
ATOM      1  C   UNL     1      -9.151  15.358  66.645  0.00  0.00    +0.022 C 
ATOM      2  C   UNL     1      -9.609  16.937  66.182  0.00  0.00    +0.018 C 
ATOM      3  C   UNL     1     -10.372  17.403  67.534  0.00  0.00    +0.001 C 
ATOM      4  C   UNL     1      -9.461  17.597  68.656  0.00  0.00    +0.000 C 
ATOM      5  C   UNL     1      -8.729  16.348  68.965  0.00  0.00    +0.000 C 
ATOM      6  C   UNL     1      -8.110  15.712  67.827  0.00  0.00    +0.002 C 
ENDROOT
BRANCH   1   7
ATOM      7  C   UNL     1     -10.423  15.116  67.616  0.00  0.00    +0.101 C 
BRANCH   7  10
ATOM      8  O   UNL     1     -11.361  12.992  69.128  0.00  0.00    -0.274 OA
ATOM      9  C   UNL     1     -11.441  13.027  68.482  0.00  0.00    +0.231 C 
ATOM     10  N   UNL     1     -10.837  13.740  67.452  0.00  0.00    -0.230 N 
ATOM     11  C   UNL     1     -11.657  13.407  66.403  0.00  0.00    +0.231 C 
ATOM     12  O   UNL     1     -12.021  13.958  65.322  0.00  0.00    -0.274 OA
ATOM     13  C   UNL     1     -11.675  11.809  66.305  0.00  0.00    +0.086 C 
ATOM     14  C   UNL     1     -10.258  11.563  67.266  0.00  0.00    +0.009 C 
ATOM     15  C   UNL     1     -10.134   9.984  66.981  0.00  0.00    +0.001 C 
ATOM     16  C   UNL     1     -10.258  11.501  67.028  0.00  0.00    +0.009 C 
ATOM     17  C   UNL     1      -9.017  11.801  68.013  0.00  0.00    +0.001 C 
ATOM     18  C   UNL     1      -9.000  12.098  66.451  0.00  0.00    +0.001 C 
ATOM     19  C   UNL     1     -11.710  11.517  67.994  0.00  0.00    +0.086 C 
ENDBRANCH   7  10
ENDBRANCH   1   7
BRANCH   2  20
ATOM     20  C   UNL     1      -8.250  17.690  66.598  0.00  0.00    +0.072 C 
BRANCH  20  21
ATOM     21  N   UNL     1      -7.865  18.705  65.757  0.00  0.00    -0.270 NA
ATOM     22  C   UNL     1      -8.123  20.060  66.116  0.00  0.00    +0.094 C 
ATOM     23  C   UNL     1      -7.031  20.521  67.075  0.00  0.00    +0.110 C 
ATOM     24  N   UNL     1      -6.703  19.417  67.979  0.00  0.00    -0.290 N 
ATOM     25  C   UNL     1      -5.999  19.812  69.169  0.00  0.00    +0.140 A 
ATOM     26  C   UNL     1      -4.722  20.353  69.187  0.00  0.00    +0.040 A 
ATOM     27  C   UNL     1      -4.106  20.151  70.406  0.00  0.00    +0.050 A 
ATOM     28  C   UNL     1      -2.737  20.184  70.591  0.00  0.00    +0.008 A 
ATOM     29  C   UNL     1      -1.938  20.576  69.525  0.00  0.00    +0.001 A 
ATOM     30  C   UNL     1      -2.560  20.846  68.312  0.00  0.00    +0.000 A 
ATOM     31  S   UNL     1      -5.459  20.109  71.457  0.00  0.00    +0.014 S 
ATOM     32  C   UNL     1      -3.867  20.459  68.092  0.00  0.00    +0.003 A 
ATOM     33  N   UNL     1      -6.687  20.148  70.288  0.00  0.00    -0.194 NA
ATOM     34  C   UNL     1      -6.083  18.297  67.267  0.00  0.00    +0.110 C 
ATOM     35  C   UNL     1      -6.400  18.553  65.792  0.00  0.00    +0.094 C 
ENDBRANCH  20  21
ENDBRANCH   2  20
TORSDOF 4
ENDMDL
MODEL 7
REMARK VINA RESULT:      -7.6      2.959      8.651
REMARK  Name = 
REMARK  4 active torsions:
REMARK  status: ('A' for Active; 'I' for Inactive)
REMARK    1  A    between atoms: N_12  and  C_13
REMARK    2  A    between atoms: C_13  and  C_14
REMARK    3  A    between atoms: C_19  and  C_20
REMARK    4  A    between atoms: C_20  and  N_21
REMARK                            x       y       z     vdW  Elec       q    Type
REMARK                         _______ _______ _______ _____ _____    ______ ____
ROOT
ATOM      1  C   UNL     1      -9.134  17.489  68.672  0.00  0.00    +0.022 C 
ATOM      2  C   UNL     1      -7.752  17.724  67.695  0.00  0.00    +0.018 C 
ATOM      3  C   UNL     1      -8.475  18.081  66.289  0.00  0.00    +0.001 C 
ATOM      4  C   UNL     1      -9.138  19.379  66.309  0.00  0.00    +0.000 C 
ATOM      5  C   UNL     1     -10.173  19.428  67.368  0.00  0.00    +0.000 C 
ATOM      6  C   UNL     1      -9.728  18.990  68.669  0.00  0.00    +0.002 C 
ENDROOT
BRANCH   1   7
ATOM      7  C   UNL     1     -10.070  16.941  67.471  0.00  0.00    +0.101 C 
BRANCH   7  10
ATOM      8  O   UNL     1      -8.920  14.482  68.022  0.00  0.00    -0.274 OA
ATOM      9  C   UNL     1      -9.529  14.634  68.200  0.00  0.00    +0.231 C 
ATOM     10  N   UNL     1     -10.459  15.589  67.807  0.00  0.00    -0.230 N 
ATOM     11  C   UNL     1     -11.437  15.387  68.749  0.00  0.00    +0.231 C 
ATOM     12  O   UNL     1     -12.324  16.100  69.307  0.00  0.00    -0.274 OA
ATOM     13  C   UNL     1     -11.860  13.845  68.668  0.00  0.00    +0.086 C 
ATOM     14  C   UNL     1     -11.166  13.559  67.110  0.00  0.00    +0.009 C 
ATOM     15  C   UNL     1     -11.785  12.086  66.919  0.00  0.00    +0.001 C 
ATOM     16  C   UNL     1     -11.410  13.544  67.142  0.00  0.00    +0.009 C 
ATOM     17  C   UNL     1     -10.555  13.768  65.792  0.00  0.00    +0.001 C 
ATOM     18  C   UNL     1     -12.011  14.364  66.029  0.00  0.00    +0.001 C 
ATOM     19  C   UNL     1     -10.278  13.228  68.432  0.00  0.00    +0.086 C 
ENDBRANCH   7  10
ENDBRANCH   1   7
BRANCH   2  20
ATOM     20  C   UNL     1      -7.499  19.273  68.045  0.00  0.00    +0.072 C 
BRANCH  20  21
ATOM     21  N   UNL     1      -6.445  19.514  68.893  0.00  0.00    -0.270 NA
ATOM     22  C   UNL     1      -5.237  18.769  68.752  0.00  0.00    +0.094 C 
ATOM     23  C   UNL     1      -4.409  19.401  67.638  0.00  0.00    +0.110 C 
ATOM     24  N   UNL     1      -5.310  19.828  66.567  0.00  0.00    -0.290 N 
ATOM     25  C   UNL     1      -4.662  20.067  65.305  0.00  0.00    +0.140 A 
ATOM     26  C   UNL     1      -3.733  21.070  65.073  0.00  0.00    +0.040 A 
ATOM     27  C   UNL     1      -3.676  21.406  63.736  0.00  0.00    +0.050 A 
ATOM     28  C   UNL     1      -3.189  22.611  63.265  0.00  0.00    +0.008 A 
ATOM     29  C   UNL     1      -2.595  23.480  64.172  0.00  0.00    +0.001 A 
ATOM     30  C   UNL     1      -2.589  23.115  65.513  0.00  0.00    +0.000 A 
ATOM     31  S   UNL     1      -4.121  19.922  63.003  0.00  0.00    +0.014 S 
ATOM     32  C   UNL     1      -3.392  22.086  65.964  0.00  0.00    +0.003 A 
ATOM     33  N   UNL     1      -4.531  19.062  64.406  0.00  0.00    -0.194 NA
ATOM     34  C   UNL     1      -6.190  20.917  66.999  0.00  0.00    +0.110 C 
ATOM     35  C   UNL     1      -6.106  20.900  68.526  0.00  0.00    +0.094 C 
ENDBRANCH  20  21
ENDBRANCH   2  20
TORSDOF 4
ENDMDL
MODEL 8
REMARK VINA RESULT:      -7.6      1.475      2.070
REMARK  Name = 
REMARK  4 active torsions:
REMARK  status: ('A' for Active; 'I' for Inactive)
REMARK    1  A    between atoms: N_12  and  C_13
REMARK    2  A    between atoms: C_13  and  C_14
REMARK    3  A    between atoms: C_19  and  C_20
REMARK    4  A    between atoms: C_20  and  N_21
REMARK                            x       y       z     vdW  Elec       q    Type
REMARK                         _______ _______ _______ _____ _____    ______ ____
ROOT
ATOM      1  C   UNL     1      -7.865  17.172  67.341  0.00  0.00    +0.022 C 
ATOM      2  C   UNL     1      -8.836  16.584  68.617  0.00  0.00    +0.018 C 
ATOM      3  C   UNL     1      -9.875  17.820  68.758  0.00  0.00    +0.001 C 
ATOM      4  C   UNL     1     -10.782  17.925  67.622  0.00  0.00    +0.000 C 
ATOM      5  C   UNL     1     -10.031  18.114  66.360  0.00  0.00    +0.000 C 
ATOM      6  C   UNL     1      -8.955  17.176  66.150  0.00  0.00    +0.002 C 
ENDROOT
BRANCH   1   7
ATOM      7  C   UNL     1      -8.044  18.733  67.729  0.00  0.00    +0.101 C 
BRANCH   7  10
ATOM      8  O   UNL     1      -7.101  21.293  67.246  0.00  0.00    -0.274 OA
ATOM      9  C   UNL     1      -6.708  20.796  67.401  0.00  0.00    +0.231 C 
ATOM     10  N   UNL     1      -6.816  19.411  67.375  0.00  0.00    -0.230 N 
ATOM     11  C   UNL     1      -5.649  19.057  68.006  0.00  0.00    +0.231 C 
ATOM     12  O   UNL     1      -5.258  18.085  68.719  0.00  0.00    -0.274 OA
ATOM     13  C   UNL     1      -4.448  19.736  67.194  0.00  0.00    +0.086 C 
ATOM     14  C   UNL     1      -5.368  20.057  65.765  0.00  0.00    +0.009 C 
ATOM     15  C   UNL     1      -4.120  20.522  64.863  0.00  0.00    +0.001 C 
ATOM     16  C   UNL     1      -5.180  19.898  65.758  0.00  0.00    +0.009 C 
ATOM     17  C   UNL     1      -6.439  20.050  64.761  0.00  0.00    +0.001 C 
ATOM     18  C   UNL     1      -5.717  18.668  65.070  0.00  0.00    +0.001 C 
ATOM     19  C   UNL     1      -5.243  21.224  66.889  0.00  0.00    +0.086 C 
ENDBRANCH   7  10
ENDBRANCH   1   7
BRANCH   2  20
ATOM     20  C   UNL     1      -9.864  15.721  67.731  0.00  0.00    +0.072 C 
BRANCH  20  21
ATOM     21  N   UNL     1     -10.840  15.067  68.441  0.00  0.00    -0.270 NA
ATOM     22  C   UNL     1     -12.062  14.705  67.800  0.00  0.00    +0.094 C 
ATOM     23  C   UNL     1     -11.835  13.407  67.032  0.00  0.00    +0.110 C 
ATOM     24  N   UNL     1     -10.501  13.444  66.430  0.00  0.00    -0.290 N 
ATOM     25  C   UNL     1     -10.301  12.494  65.368  0.00  0.00    +0.140 A 
ATOM     26  C   UNL     1     -10.311  11.117  65.529  0.00  0.00    +0.040 A 
ATOM     27  C   UNL     1      -9.602  10.487  64.527  0.00  0.00    +0.050 A 
ATOM     28  C   UNL     1      -9.082   9.211  64.638  0.00  0.00    +0.008 A 
ATOM     29  C   UNL     1      -9.404   8.464  65.764  0.00  0.00    +0.001 A 
ATOM     30  C   UNL     1     -10.175   9.072  66.747  0.00  0.00    +0.000 A 
ATOM     31  S   UNL     1      -9.802  11.594  63.234  0.00  0.00    +0.014 S 
ATOM     32  C   UNL     1     -10.364  10.441  66.746  0.00  0.00    +0.003 A 
ATOM     33  N   UNL     1     -10.578  12.838  64.087  0.00  0.00    -0.194 NA
ATOM     34  C   UNL     1      -9.446  13.429  67.446  0.00  0.00    +0.110 C 
ATOM     35  C   UNL     1     -10.157  13.799  68.749  0.00  0.00    +0.094 C 
ENDBRANCH  20  21
ENDBRANCH   2  20
TORSDOF 4
ENDMDL
MODEL 9
REMARK VINA RESULT:      -7.4      4.502      9.625
REMARK  Name = 
REMARK  4 active torsions:
REMARK  status: ('A' for Active; 'I' for Inactive)
REMARK    1  A    between atoms: N_12  and  C_13
REMARK    2  A    between atoms: C_13  and  C_14
REMARK    3  A    between atoms: C_19  and  C_20
REMARK    4  A    between atoms: C_20  and  N_21
REMARK                            x       y       z     vdW  Elec       q    Type
REMARK                         _______ _______ _______ _____ _____    ______ ____
ROOT
ATOM      1  C   UNL     1     -10.834  10.258  68.389  0.00  0.00    +0.022 C 
ATOM      2  C   UNL     1     -10.255  11.820  68.765  0.00  0.00    +0.018 C 
ATOM      3  C   UNL     1      -8.779  11.727  68.101  0.00  0.00    +0.001 C 
ATOM      4  C   UNL     1      -8.818  11.688  66.644  0.00  0.00    +0.000 C 
ATOM      5  C   UNL     1      -9.597  10.522  66.166  0.00  0.00    +0.000 C 
ATOM      6  C   UNL     1     -10.894  10.369  66.780  0.00  0.00    +0.002 C 
ENDROOT
BRANCH   1   7
ATOM      7  C   UNL     1      -9.382   9.546  68.448  0.00  0.00    +0.101 C 
BRANCH   7  10
ATOM      8  O   UNL     1      -9.610   6.915  69.287  0.00  0.00    -0.274 OA
ATOM      9  C   UNL     1      -9.317   7.375  69.645  0.00  0.00    +0.231 C 
ATOM     10  N   UNL     1      -9.332   8.765  69.665  0.00  0.00    -0.230 N 
ATOM     11  C   UNL     1      -8.339   9.012  70.580  0.00  0.00    +0.231 C 
ATOM     12  O   UNL     1      -7.506   9.943  70.789  0.00  0.00    -0.274 OA
ATOM     13  C   UNL     1      -8.730   8.234  71.924  0.00  0.00    +0.086 C 
ATOM     14  C   UNL     1     -10.393   8.001  71.508  0.00  0.00    +0.009 C 
ATOM     15  C   UNL     1     -10.846   7.432  72.943  0.00  0.00    +0.001 C 
ATOM     16  C   UNL     1     -10.332   8.143  71.700  0.00  0.00    +0.009 C 
ATOM     17  C   UNL     1     -11.693   8.105  70.836  0.00  0.00    +0.001 C 
ATOM     18  C   UNL     1     -11.118   9.417  71.524  0.00  0.00    +0.001 C 
ATOM     19  C   UNL     1      -9.330   6.823  71.157  0.00  0.00    +0.086 C 
ENDBRANCH   7  10
ENDBRANCH   1   7
BRANCH   2  20
ATOM     20  C   UNL     1     -10.862  12.591  67.490  0.00  0.00    +0.072 C 
BRANCH  20  21
ATOM     21  N   UNL     1     -12.010  13.304  67.734  0.00  0.00    -0.270 NA
ATOM     22  C   UNL     1     -12.153  14.022  68.958  0.00  0.00    +0.094 C 
ATOM     23  C   UNL     1     -11.424  15.355  68.822  0.00  0.00    +0.110 C 
ATOM     24  N   UNL     1     -10.189  15.140  68.065  0.00  0.00    -0.290 N 
ATOM     25  C   UNL     1      -9.219  16.194  68.199  0.00  0.00    +0.140 A 
ATOM     26  C   UNL     1      -9.400  17.493  67.750  0.00  0.00    +0.040 A 
ATOM     27  C   UNL     1      -8.192  18.122  67.526  0.00  0.00    +0.050 A 
ATOM     28  C   UNL     1      -8.036  19.220  66.701  0.00  0.00    +0.008 A 
ATOM     29  C   UNL     1      -9.176  19.813  66.174  0.00  0.00    +0.001 A 
ATOM     30  C   UNL     1     -10.403  19.222  66.451  0.00  0.00    +0.000 A 
ATOM     31  S   UNL     1      -7.187  17.321  68.661  0.00  0.00    +0.014 S 
ATOM     32  C   UNL     1     -10.466  17.946  66.975  0.00  0.00    +0.003 A 
ATOM     33  N   UNL     1      -8.289  16.142  69.183  0.00  0.00    -0.194 NA
ATOM     34  C   UNL     1     -10.462  14.756  66.678  0.00  0.00    +0.110 C 
ATOM     35  C   UNL     1     -11.930  14.327  66.676  0.00  0.00    +0.094 C 
ENDBRANCH  20  21
ENDBRANCH   2  20
TORSDOF 4
ENDMDL
