MODEL 1
REMARK VINA RESULT:      -5.1      0.000      0.000
REMARK  Name = 
REMARK  1 active torsions:
REMARK  status: ('A' for Active; 'I' for Inactive)
REMARK    1  A    between atoms: C_3  and  C_4
REMARK                            x       y       z     vdW  Elec       q    Type
REMARK                         _______ _______ _______ _____ _____    ______ ____
ROOT
ATOM      1  C   UNL     1      -9.179  15.134  69.273  0.00  0.00    +0.020 C 
ATOM      2  C   UNL     1     -10.177  16.418  69.263  0.00  0.00    +0.089 C 
ATOM      3  N   UNL     1     -10.036  16.628  67.725  0.00  0.00    -0.268 NA
ATOM      4  C   UNL     1     -10.488  18.014  67.598  0.00  0.00    +0.090 C 
ATOM      5  C   UNL     1     -10.907  15.805  67.003  0.00  0.00    +0.105 C 
ATOM      6  C   UNL     1     -10.926  14.350  67.351  0.00  0.00    +0.160 C 
ATOM      7  O   UNL     1     -11.153  14.243  68.734  0.00  0.00    -0.349 OA
ATOM      8  C   UNL     1     -11.688  15.600  69.130  0.00  0.00    +0.152 C 
ENDROOT
BRANCH   8   9
ATOM      9  C   UNL     1     -11.776  15.197  70.682  0.00  0.00    +0.006 A 
ATOM     10  C   UNL     1     -12.299  13.917  70.795  0.00  0.00    -0.002 A 
ATOM     11  C   UNL     1     -13.146  13.612  71.855  0.00  0.00    -0.000 A 
ATOM     12  C   UNL     1     -13.175  14.547  72.884  0.00  0.00    -0.000 A 
ATOM     13  C   UNL     1     -12.274  15.605  72.905  0.00  0.00    -0.000 A 
ATOM     14  C   UNL     1     -11.893  16.089  71.656  0.00  0.00    -0.002 A 
ENDBRANCH   8   9
TORSDOF 1
ENDMDL
MODEL 2
REMARK VINA RESULT:      -5.1      1.421      2.574
REMARK  Name = 
REMARK  1 active torsions:
REMARK  status: ('A' for Active; 'I' for Inactive)
REMARK    1  A    between atoms: C_3  and  C_4
REMARK                            x       y       z     vdW  Elec       q    Type
REMARK                         _______ _______ _______ _____ _____    ______ ____
ROOT
ATOM      1  C   UNL     1     -11.366  16.355  68.225  0.00  0.00    +0.020 C 
ATOM      2  C   UNL     1     -11.946  14.842  68.354  0.00  0.00    +0.089 C 
ATOM      3  N   UNL     1     -10.782  14.229  67.519  0.00  0.00    -0.268 NA
ATOM      4  C   UNL     1     -11.373  12.947  67.131  0.00  0.00    +0.090 C 
ATOM      5  C   UNL     1      -9.650  13.980  68.303  0.00  0.00    +0.105 C 
ATOM      6  C   UNL     1      -9.162  15.091  69.178  0.00  0.00    +0.160 C 
ATOM      7  O   UNL     1     -10.242  15.524  69.966  0.00  0.00    -0.349 OA
ATOM      8  C   UNL     1     -11.249  14.400  69.867  0.00  0.00    +0.152 C 
ENDROOT
BRANCH   8   9
ATOM      9  C   UNL     1     -12.326  15.184  70.763  0.00  0.00    +0.006 A 
ATOM     10  C   UNL     1     -11.666  16.043  71.629  0.00  0.00    -0.002 A 
ATOM     11  C   UNL     1     -12.163  16.242  72.912  0.00  0.00    -0.000 A 
ATOM     12  C   UNL     1     -13.456  15.778  73.129  0.00  0.00    -0.000 A 
ATOM     13  C   UNL     1     -14.231  15.319  72.070  0.00  0.00    -0.000 A 
ATOM     14  C   UNL     1     -13.528  14.697  71.041  0.00  0.00    -0.002 A 
ENDBRANCH   8   9
TORSDOF 1
ENDMDL
MODEL 3
REMARK VINA RESULT:      -5.0      1.335      2.446
REMARK  Name = 
REMARK  1 active torsions:
REMARK  status: ('A' for Active; 'I' for Inactive)
REMARK    1  A    between atoms: C_3  and  C_4
REMARK                            x       y       z     vdW  Elec       q    Type
REMARK                         _______ _______ _______ _____ _____    ______ ____
ROOT
ATOM      1  C   UNL     1     -11.760  14.726  67.527  0.00  0.00    +0.020 C 
ATOM      2  C   UNL     1     -10.658  14.137  68.568  0.00  0.00    +0.089 C 
ATOM      3  N   UNL     1      -9.488  14.937  67.921  0.00  0.00    -0.268 NA
ATOM      4  C   UNL     1      -8.337  14.184  68.421  0.00  0.00    +0.090 C 
ATOM      5  C   UNL     1      -9.414  16.245  68.410  0.00  0.00    +0.105 C 
ATOM      6  C   UNL     1     -10.676  17.048  68.422  0.00  0.00    +0.160 C 
ATOM      7  O   UNL     1     -11.653  16.302  69.105  0.00  0.00    -0.349 OA
ATOM      8  C   UNL     1     -10.864  15.258  69.861  0.00  0.00    +0.152 C 
ENDROOT
BRANCH   8   9
ATOM      9  C   UNL     1     -12.190  14.569  70.447  0.00  0.00    +0.006 A 
ATOM     10  C   UNL     1     -13.047  15.552  70.920  0.00  0.00    -0.002 A 
ATOM     11  C   UNL     1     -13.807  15.311  72.060  0.00  0.00    -0.000 A 
ATOM     12  C   UNL     1     -13.857  13.985  72.474  0.00  0.00    -0.000 A 
ATOM     13  C   UNL     1     -13.327  12.974  71.679  0.00  0.00    -0.000 A 
ATOM     14  C   UNL     1     -12.214  13.332  70.923  0.00  0.00    -0.002 A 
ENDBRANCH   8   9
TORSDOF 1
ENDMDL
MODEL 4
REMARK VINA RESULT:      -4.9      1.800      2.521
REMARK  Name = 
REMARK  1 active torsions:
REMARK  status: ('A' for Active; 'I' for Inactive)
REMARK    1  A    between atoms: C_3  and  C_4
REMARK                            x       y       z     vdW  Elec       q    Type
REMARK                         _______ _______ _______ _____ _____    ______ ____
ROOT
ATOM      1  C   UNL     1      -9.516  13.777  66.910  0.00  0.00    +0.020 C 
ATOM      2  C   UNL     1     -10.520  15.022  66.615  0.00  0.00    +0.089 C 
ATOM      3  N   UNL     1     -10.799  14.567  65.151  0.00  0.00    -0.268 NA
ATOM      4  C   UNL     1     -11.312  15.810  64.574  0.00  0.00    +0.090 C 
ATOM      5  C   UNL     1     -11.804  13.596  65.088  0.00  0.00    +0.105 C 
ATOM      6  C   UNL     1     -11.686  12.421  66.006  0.00  0.00    +0.160 C 
ATOM      7  O   UNL     1     -11.534  12.913  67.315  0.00  0.00    -0.349 OA
ATOM      8  C   UNL     1     -11.987  14.353  67.226  0.00  0.00    +0.152 C 
ENDROOT
BRANCH   8   9
ATOM      9  C   UNL     1     -11.646  14.634  68.770  0.00  0.00    +0.006 A 
ATOM     10  C   UNL     1     -11.876  13.482  69.508  0.00  0.00    -0.002 A 
ATOM     11  C   UNL     1     -12.390  13.581  70.796  0.00  0.00    -0.000 A 
ATOM     12  C   UNL     1     -12.367  14.856  71.351  0.00  0.00    -0.000 A 
ATOM     13  C   UNL     1     -11.704  15.896  70.709  0.00  0.00    -0.000 A 
ATOM     14  C   UNL     1     -11.711  15.840  69.318  0.00  0.00    -0.002 A 
ENDBRANCH   8   9
TORSDOF 1
ENDMDL
MODEL 5
REMARK VINA RESULT:      -4.8      2.861      4.967
REMARK  Name = 
REMARK  1 active torsions:
REMARK  status: ('A' for Active; 'I' for Inactive)
REMARK    1  A    between atoms: C_3  and  C_4
REMARK                            x       y       z     vdW  Elec       q    Type
REMARK                         _______ _______ _______ _____ _____    ______ ____
ROOT
ATOM      1  C   UNL     1      -9.030  14.931  66.524  0.00  0.00    +0.020 C 
ATOM      2  C   UNL     1     -10.523  15.393  66.075  0.00  0.00    +0.089 C 
ATOM      3  N   UNL     1     -11.164  14.033  66.486  0.00  0.00    -0.268 NA
ATOM      4  C   UNL     1     -12.416  14.085  65.730  0.00  0.00    +0.090 C 
ATOM      5  C   UNL     1     -11.467  13.989  67.851  0.00  0.00    +0.105 C 
ATOM      6  C   UNL     1     -10.390  14.390  68.809  0.00  0.00    +0.160 C 
ATOM      7  O   UNL     1      -9.932  15.665  68.429  0.00  0.00    -0.349 OA
ATOM      8  C   UNL     1     -11.016  16.195  67.520  0.00  0.00    +0.152 C 
ENDROOT
BRANCH   8   9
ATOM      9  C   UNL     1     -10.209  17.550  67.221  0.00  0.00    +0.006 A 
ATOM     10  C   UNL     1      -9.650  18.021  68.400  0.00  0.00    -0.002 A 
ATOM     11  C   UNL     1      -9.583  19.391  68.630  0.00  0.00    -0.000 A 
ATOM     12  C   UNL     1      -9.828  20.194  67.522  0.00  0.00    -0.000 A 
ATOM     13  C   UNL     1      -9.945  19.636  66.254  0.00  0.00    -0.000 A 
ATOM     14  C   UNL     1     -10.502  18.360  66.213  0.00  0.00    -0.002 A 
ENDBRANCH   8   9
TORSDOF 1
ENDMDL
MODEL 6
REMARK VINA RESULT:      -4.8      3.397      6.657
REMARK  Name = 
REMARK  1 active torsions:
REMARK  status: ('A' for Active; 'I' for Inactive)
REMARK    1  A    between atoms: C_3  and  C_4
REMARK                            x       y       z     vdW  Elec       q    Type
REMARK                         _______ _______ _______ _____ _____    ______ ____
ROOT
ATOM      1  C   UNL     1     -10.835  19.405  67.095  0.00  0.00    +0.020 C 
ATOM      2  C   UNL     1      -9.988  18.665  68.270  0.00  0.00    +0.089 C 
ATOM      3  N   UNL     1     -10.844  17.366  68.193  0.00  0.00    -0.268 NA
ATOM      4  C   UNL     1     -10.535  16.761  69.490  0.00  0.00    +0.090 C 
ATOM      5  C   UNL     1     -10.403  16.507  67.182  0.00  0.00    +0.105 C 
ATOM      6  C   UNL     1     -10.191  17.096  65.823  0.00  0.00    +0.160 C 
ATOM      7  O   UNL     1      -9.334  18.201  65.963  0.00  0.00    -0.349 OA
ATOM      8  C   UNL     1      -8.703  18.013  67.324  0.00  0.00    +0.152 C 
ENDROOT
BRANCH   8   9
ATOM      9  C   UNL     1      -7.882  19.389  67.218  0.00  0.00    +0.006 A 
ATOM     10  C   UNL     1      -7.594  19.650  65.887  0.00  0.00    -0.002 A 
ATOM     11  C   UNL     1      -6.380  20.239  65.549  0.00  0.00    -0.000 A 
ATOM     12  C   UNL     1      -5.665  20.783  66.611  0.00  0.00    -0.000 A 
ATOM     13  C   UNL     1      -6.236  20.877  67.875  0.00  0.00    -0.000 A 
ATOM     14  C   UNL     1      -7.130  19.861  68.203  0.00  0.00    -0.002 A 
ENDBRANCH   8   9
TORSDOF 1
ENDMDL
MODEL 7
REMARK VINA RESULT:      -4.7      3.393      5.158
REMARK  Name = 
REMARK  1 active torsions:
REMARK  status: ('A' for Active; 'I' for Inactive)
REMARK    1  A    between atoms: C_3  and  C_4
REMARK                            x       y       z     vdW  Elec       q    Type
REMARK                         _______ _______ _______ _____ _____    ______ ____
ROOT
ATOM      1  C   UNL     1     -12.734  13.815  65.605  0.00  0.00    +0.020 C 
ATOM      2  C   UNL     1     -11.879  13.272  66.877  0.00  0.00    +0.089 C 
ATOM      3  N   UNL     1     -11.638  11.874  66.232  0.00  0.00    -0.268 NA
ATOM      4  C   UNL     1     -11.287  11.087  67.415  0.00  0.00    +0.090 C 
ATOM      5  C   UNL     1     -10.545  11.881  65.359  0.00  0.00    +0.105 C 
ATOM      6  C   UNL     1     -10.493  12.967  64.331  0.00  0.00    +0.160 C 
ATOM      7  O   UNL     1     -10.620  14.197  64.999  0.00  0.00    -0.349 OA
ATOM      8  C   UNL     1     -10.320  13.869  66.444  0.00  0.00    +0.152 C 
ENDROOT
BRANCH   8   9
ATOM      9  C   UNL     1     -10.599  15.375  66.924  0.00  0.00    +0.006 A 
ATOM     10  C   UNL     1     -10.132  16.258  65.961  0.00  0.00    -0.002 A 
ATOM     11  C   UNL     1      -9.557  17.462  66.354  0.00  0.00    -0.000 A 
ATOM     12  C   UNL     1      -9.756  17.813  67.684  0.00  0.00    -0.000 A 
ATOM     13  C   UNL     1     -10.626  17.082  68.486  0.00  0.00    -0.000 A 
ATOM     14  C   UNL     1     -10.702  15.722  68.200  0.00  0.00    -0.002 A 
ENDBRANCH   8   9
TORSDOF 1
ENDMDL
MODEL 8
REMARK VINA RESULT:      -4.6      4.004      6.544
REMARK  Name = 
REMARK  1 active torsions:
REMARK  status: ('A' for Active; 'I' for Inactive)
REMARK    1  A    between atoms: C_3  and  C_4
REMARK                            x       y       z     vdW  Elec       q    Type
REMARK                         _______ _______ _______ _____ _____    ______ ____
ROOT
ATOM      1  C   UNL     1      -7.830  17.506  66.355  0.00  0.00    +0.020 C 
ATOM      2  C   UNL     1      -8.484  18.995  66.318  0.00  0.00    +0.089 C 
ATOM      3  N   UNL     1      -9.939  18.449  66.200  0.00  0.00    -0.268 NA
ATOM      4  C   UNL     1     -10.631  19.633  65.686  0.00  0.00    +0.090 C 
ATOM      5  C   UNL     1     -10.478  18.123  67.449  0.00  0.00    +0.105 C 
ATOM      6  C   UNL     1      -9.651  17.265  68.353  0.00  0.00    +0.160 C 
ATOM      7  O   UNL     1      -8.390  17.872  68.485  0.00  0.00    -0.349 OA
ATOM      8  C   UNL     1      -8.608  19.291  68.012  0.00  0.00    +0.152 C 
ENDROOT
BRANCH   8   9
ATOM      9  C   UNL     1      -7.062  19.676  68.209  0.00  0.00    +0.006 A 
ATOM     10  C   UNL     1      -6.588  19.089  69.373  0.00  0.00    -0.002 A 
ATOM     11  C   UNL     1      -5.667  19.772  70.161  0.00  0.00    -0.000 A 
ATOM     12  C   UNL     1      -5.076  20.879  69.564  0.00  0.00    -0.000 A 
ATOM     13  C   UNL     1      -5.276  21.147  68.214  0.00  0.00    -0.000 A 
ATOM     14  C   UNL     1      -6.521  20.779  67.711  0.00  0.00    -0.002 A 
ENDBRANCH   8   9
TORSDOF 1
ENDMDL
MODEL 9
REMARK VINA RESULT:      -4.6      3.235      5.033
REMARK  Name = 
REMARK  1 active torsions:
REMARK  status: ('A' for Active; 'I' for Inactive)
REMARK    1  A    between atoms: C_3  and  C_4
REMARK                            x       y       z     vdW  Elec       q    Type
REMARK                         _______ _______ _______ _____ _____    ______ ____
ROOT
ATOM      1  C   UNL     1     -11.596  15.163  67.682  0.00  0.00    +0.020 C 
ATOM      2  C   UNL     1     -10.039  15.268  68.140  0.00  0.00    +0.089 C 
ATOM      3  N   UNL     1      -9.673  13.880  67.531  0.00  0.00    -0.268 NA
ATOM      4  C   UNL     1      -8.430  13.590  68.247  0.00  0.00    +0.090 C 
ATOM      5  C   UNL     1      -9.393  13.966  66.164  0.00  0.00    +0.105 C 
ATOM      6  C   UNL     1     -10.378  14.691  65.303  0.00  0.00    +0.160 C 
ATOM      7  O   UNL     1     -10.581  15.965  65.862  0.00  0.00    -0.349 OA
ATOM      8  C   UNL     1      -9.410  16.151  66.799  0.00  0.00    +0.152 C 
ENDROOT
BRANCH   8   9
ATOM      9  C   UNL     1      -9.940  17.581  67.301  0.00  0.00    +0.006 A 
ATOM     10  C   UNL     1     -10.463  18.280  66.223  0.00  0.00    -0.002 A 
ATOM     11  C   UNL     1     -10.290  19.658  66.149  0.00  0.00    -0.000 A 
ATOM     12  C   UNL     1      -9.847  20.268  67.317  0.00  0.00    -0.000 A 
ATOM     13  C   UNL     1      -9.769  19.549  68.506  0.00  0.00    -0.000 A 
ATOM     14  C   UNL     1      -9.453  18.200  68.367  0.00  0.00    -0.002 A 
ENDBRANCH   8   9
TORSDOF 1
ENDMDL
