MODEL 1
REMARK VINA RESULT:      -6.0      0.000      0.000
REMARK  Name = 
REMARK  4 active torsions:
REMARK  status: ('A' for Active; 'I' for Inactive)
REMARK    1  A    between atoms: C_2  and  C_3
REMARK    2  A    between atoms: C_2  and  C_7
REMARK    3  A    between atoms: C_3  and  N_4
REMARK    4  A    between atoms: C_7  and  N_8
REMARK                            x       y       z     vdW  Elec       q    Type
REMARK                         _______ _______ _______ _____ _____    ______ ____
ROOT
ATOM      1  N   UNL     1     -11.171  12.572  69.613  0.00  0.00    -0.287 N 
ATOM      2  C   UNL     1     -12.174  13.219  70.404  0.00  0.00    +0.048 A 
ATOM      3  C   UNL     1     -13.018  12.666  71.361  0.00  0.00    -0.008 A 
ATOM      4  C   UNL     1     -13.654  13.492  72.272  0.00  0.00    -0.003 A 
ATOM      5  C   UNL     1     -13.750  14.835  71.968  0.00  0.00    -0.000 A 
ATOM      6  C   UNL     1     -13.130  15.327  70.824  0.00  0.00    +0.001 A 
ATOM      7  C   UNL     1     -12.966  11.280  71.879  0.00  0.00    +0.032 C 
ATOM      8  C   UNL     1     -13.096  10.237  70.801  0.00  0.00    +0.032 C 
ATOM      9  C   UNL     1     -11.793  10.124  70.074  0.00  0.00    -0.008 A 
ATOM     10  C   UNL     1     -11.254   8.862  70.228  0.00  0.00    -0.003 A 
ATOM     11  C   UNL     1      -9.934   8.666  69.847  0.00  0.00    -0.000 A 
ATOM     12  C   UNL     1      -9.214   9.618  69.157  0.00  0.00    +0.001 A 
ATOM     13  C   UNL     1      -9.834  10.837  68.908  0.00  0.00    +0.015 A 
ATOM     14  C   UNL     1     -12.392  14.516  69.978  0.00  0.00    +0.015 A 
ATOM     15  C   UNL     1     -11.006  11.149  69.564  0.00  0.00    +0.048 A 
ENDROOT
BRANCH   1  16
ATOM     16  C   UNL     1     -10.730  13.249  68.411  0.00  0.00    +0.097 C 
BRANCH  16  18
ATOM     17  C   UNL     1     -12.181  14.076  66.714  0.00  0.00    +0.003 C 
ATOM     18  C   UNL     1     -11.647  12.585  67.202  0.00  0.00    +0.036 C 
BRANCH  18  19
ATOM     19  C   UNL     1     -10.375  12.641  66.141  0.00  0.00    +0.074 C 
BRANCH  19  20
ATOM     20  N   UNL     1     -10.871  11.738  65.123  0.00  0.00    -0.270 NA
ATOM     21  C   UNL     1     -10.745  12.323  63.819  0.00  0.00    +0.090 C 
ATOM     22  C   UNL     1     -10.163  10.485  65.264  0.00  0.00    +0.090 C 
ENDBRANCH  19  20
ENDBRANCH  18  19
ENDBRANCH  16  18
ENDBRANCH   1  16
TORSDOF 4
ENDMDL
MODEL 2
REMARK VINA RESULT:      -5.9      1.728      5.840
REMARK  Name = 
REMARK  4 active torsions:
REMARK  status: ('A' for Active; 'I' for Inactive)
REMARK    1  A    between atoms: C_2  and  C_3
REMARK    2  A    between atoms: C_2  and  C_7
REMARK    3  A    between atoms: C_3  and  N_4
REMARK    4  A    between atoms: C_7  and  N_8
REMARK                            x       y       z     vdW  Elec       q    Type
REMARK                         _______ _______ _______ _____ _____    ______ ____
ROOT
ATOM      1  N   UNL     1     -11.494  13.545  68.521  0.00  0.00    -0.287 N 
ATOM      2  C   UNL     1     -11.496  12.170  68.922  0.00  0.00    +0.048 A 
ATOM      3  C   UNL     1     -11.118  11.050  68.190  0.00  0.00    -0.008 A 
ATOM      4  C   UNL     1     -10.839   9.865  68.849  0.00  0.00    -0.003 A 
ATOM      5  C   UNL     1     -11.314   9.714  70.135  0.00  0.00    -0.000 A 
ATOM      6  C   UNL     1     -11.963  10.775  70.757  0.00  0.00    +0.001 A 
ATOM      7  C   UNL     1     -10.487  11.051  66.851  0.00  0.00    +0.032 C 
ATOM      8  C   UNL     1     -11.305  11.764  65.807  0.00  0.00    +0.032 C 
ATOM      9  C   UNL     1     -11.151  13.240  65.995  0.00  0.00    -0.008 A 
ATOM     10  C   UNL     1     -10.559  13.815  64.887  0.00  0.00    -0.003 A 
ATOM     11  C   UNL     1     -10.102  15.121  64.996  0.00  0.00    -0.000 A 
ATOM     12  C   UNL     1     -10.383  15.915  66.089  0.00  0.00    +0.001 A 
ATOM     13  C   UNL     1     -11.093  15.339  67.135  0.00  0.00    +0.015 A 
ATOM     14  C   UNL     1     -12.134  12.001  70.137  0.00  0.00    +0.015 A 
ATOM     15  C   UNL     1     -11.257  13.970  67.173  0.00  0.00    +0.048 A 
ENDROOT
BRANCH   1  16
ATOM     16  C   UNL     1     -12.314  14.464  69.283  0.00  0.00    +0.097 C 
BRANCH  16  18
ATOM     17  C   UNL     1     -10.989  16.318  69.972  0.00  0.00    +0.003 C 
ATOM     18  C   UNL     1     -11.391  14.841  70.606  0.00  0.00    +0.036 C 
BRANCH  18  19
ATOM     19  C   UNL     1     -12.699  15.484  71.395  0.00  0.00    +0.074 C 
BRANCH  19  20
ATOM     20  N   UNL     1     -12.779  14.567  72.514  0.00  0.00    -0.270 NA
ATOM     21  C   UNL     1     -12.585  15.261  73.755  0.00  0.00    +0.090 C 
ATOM     22  C   UNL     1     -14.049  13.880  72.429  0.00  0.00    +0.090 C 
ENDBRANCH  19  20
ENDBRANCH  18  19
ENDBRANCH  16  18
ENDBRANCH   1  16
TORSDOF 4
ENDMDL
MODEL 3
REMARK VINA RESULT:      -5.8      1.485      5.361
REMARK  Name = 
REMARK  4 active torsions:
REMARK  status: ('A' for Active; 'I' for Inactive)
REMARK    1  A    between atoms: C_2  and  C_3
REMARK    2  A    between atoms: C_2  and  C_7
REMARK    3  A    between atoms: C_3  and  N_4
REMARK    4  A    between atoms: C_7  and  N_8
REMARK                            x       y       z     vdW  Elec       q    Type
REMARK                         _______ _______ _______ _____ _____    ______ ____
ROOT
ATOM      1  N   UNL     1     -12.023  13.123  68.634  0.00  0.00    -0.287 N 
ATOM      2  C   UNL     1     -11.460  13.151  67.317  0.00  0.00    +0.048 A 
ATOM      3  C   UNL     1     -10.746  12.158  66.656  0.00  0.00    -0.008 A 
ATOM      4  C   UNL     1     -10.603  12.219  65.280  0.00  0.00    -0.003 A 
ATOM      5  C   UNL     1     -10.820  13.433  64.662  0.00  0.00    -0.000 A 
ATOM      6  C   UNL     1     -11.265  14.517  65.412  0.00  0.00    +0.001 A 
ATOM      7  C   UNL     1     -10.527  10.773  67.131  0.00  0.00    +0.032 C 
ATOM      8  C   UNL     1      -9.857  10.705  68.477  0.00  0.00    +0.032 C 
ATOM      9  C   UNL     1     -10.864  11.019  69.537  0.00  0.00    -0.008 A 
ATOM     10  C   UNL     1     -11.046   9.936  70.376  0.00  0.00    -0.003 A 
ATOM     11  C   UNL     1     -12.128   9.960  71.245  0.00  0.00    -0.000 A 
ATOM     12  C   UNL     1     -12.903  11.085  71.432  0.00  0.00    +0.001 A 
ATOM     13  C   UNL     1     -12.611  12.202  70.659  0.00  0.00    +0.015 A 
ATOM     14  C   UNL     1     -11.523  14.418  66.769  0.00  0.00    +0.015 A 
ATOM     15  C   UNL     1     -11.764  12.077  69.577  0.00  0.00    +0.048 A 
ENDROOT
BRANCH   1  16
ATOM     16  C   UNL     1     -12.340  14.395  69.250  0.00  0.00    +0.097 C 
BRANCH  16  18
ATOM     17  C   UNL     1     -10.284  15.514  69.684  0.00  0.00    +0.003 C 
ATOM     18  C   UNL     1     -11.293  14.507  70.529  0.00  0.00    +0.036 C 
BRANCH  18  19
ATOM     19  C   UNL     1     -12.125  15.793  71.159  0.00  0.00    +0.074 C 
BRANCH  19  20
ATOM     20  N   UNL     1     -12.766  15.138  72.281  0.00  0.00    -0.270 NA
ATOM     21  C   UNL     1     -12.239  15.625  73.524  0.00  0.00    +0.090 C 
ATOM     22  C   UNL     1     -14.193  15.331  72.145  0.00  0.00    +0.090 C 
ENDBRANCH  19  20
ENDBRANCH  18  19
ENDBRANCH  16  18
ENDBRANCH   1  16
TORSDOF 4
ENDMDL
MODEL 4
REMARK VINA RESULT:      -5.7      1.378      5.329
REMARK  Name = 
REMARK  4 active torsions:
REMARK  status: ('A' for Active; 'I' for Inactive)
REMARK    1  A    between atoms: C_2  and  C_3
REMARK    2  A    between atoms: C_2  and  C_7
REMARK    3  A    between atoms: C_3  and  N_4
REMARK    4  A    between atoms: C_7  and  N_8
REMARK                            x       y       z     vdW  Elec       q    Type
REMARK                         _______ _______ _______ _____ _____    ______ ____
ROOT
ATOM      1  N   UNL     1     -11.734  12.296  67.721  0.00  0.00    -0.287 N 
ATOM      2  C   UNL     1     -11.205  12.070  66.409  0.00  0.00    +0.048 A 
ATOM      3  C   UNL     1     -10.417  11.016  65.959  0.00  0.00    -0.008 A 
ATOM      4  C   UNL     1     -10.312  10.774  64.600  0.00  0.00    -0.003 A 
ATOM      5  C   UNL     1     -10.654  11.791  63.733  0.00  0.00    -0.000 A 
ATOM      6  C   UNL     1     -11.180  12.975  64.238  0.00  0.00    +0.001 A 
ATOM      7  C   UNL     1     -10.059   9.800  66.724  0.00  0.00    +0.032 C 
ATOM      8  C   UNL     1      -9.356  10.099  68.021  0.00  0.00    +0.032 C 
ATOM      9  C   UNL     1     -10.364  10.560  69.025  0.00  0.00    -0.008 A 
ATOM     10  C   UNL     1     -10.425   9.686  70.094  0.00  0.00    -0.003 A 
ATOM     11  C   UNL     1     -11.485   9.815  70.980  0.00  0.00    -0.000 A 
ATOM     12  C   UNL     1     -12.357  10.883  70.942  0.00  0.00    +0.001 A 
ATOM     13  C   UNL     1     -12.187  11.815  69.925  0.00  0.00    +0.015 A 
ATOM     14  C   UNL     1     -11.397  13.168  65.592  0.00  0.00    +0.015 A 
ATOM     15  C   UNL     1     -11.357  11.519  68.864  0.00  0.00    +0.048 A 
ENDROOT
BRANCH   1  16
ATOM     16  C   UNL     1     -12.153  13.643  68.047  0.00  0.00    +0.097 C 
BRANCH  16  18
ATOM     17  C   UNL     1     -10.230  15.046  68.096  0.00  0.00    +0.003 C 
ATOM     18  C   UNL     1     -11.074  14.144  69.200  0.00  0.00    +0.036 C 
BRANCH  18  19
ATOM     19  C   UNL     1     -12.028  15.439  69.599  0.00  0.00    +0.074 C 
BRANCH  19  20
ATOM     20  N   UNL     1     -12.319  15.107  70.979  0.00  0.00    -0.270 NA
ATOM     21  C   UNL     1     -11.716  16.059  71.869  0.00  0.00    +0.090 C 
ATOM     22  C   UNL     1     -13.756  15.018  71.117  0.00  0.00    +0.090 C 
ENDBRANCH  19  20
ENDBRANCH  18  19
ENDBRANCH  16  18
ENDBRANCH   1  16
TORSDOF 4
ENDMDL
MODEL 5
REMARK VINA RESULT:      -5.6      1.799      4.393
REMARK  Name = 
REMARK  4 active torsions:
REMARK  status: ('A' for Active; 'I' for Inactive)
REMARK    1  A    between atoms: C_2  and  C_3
REMARK    2  A    between atoms: C_2  and  C_7
REMARK    3  A    between atoms: C_3  and  N_4
REMARK    4  A    between atoms: C_7  and  N_8
REMARK                            x       y       z     vdW  Elec       q    Type
REMARK                         _______ _______ _______ _____ _____    ______ ____
ROOT
ATOM      1  N   UNL     1     -11.782  13.599  68.522  0.00  0.00    -0.287 N 
ATOM      2  C   UNL     1     -11.881  14.209  69.814  0.00  0.00    +0.048 A 
ATOM      3  C   UNL     1     -11.376  15.432  70.240  0.00  0.00    -0.008 A 
ATOM      4  C   UNL     1     -11.877  16.015  71.391  0.00  0.00    -0.003 A 
ATOM      5  C   UNL     1     -12.557  15.209  72.280  0.00  0.00    -0.000 A 
ATOM      6  C   UNL     1     -12.802  13.880  71.953  0.00  0.00    +0.001 A 
ATOM      7  C   UNL     1     -10.728  16.456  69.389  0.00  0.00    +0.032 C 
ATOM      8  C   UNL     1      -9.526  15.937  68.645  0.00  0.00    +0.032 C 
ATOM      9  C   UNL     1      -9.991  15.118  67.484  0.00  0.00    -0.008 A 
ATOM     10  C   UNL     1      -9.585  15.685  66.291  0.00  0.00    -0.003 A 
ATOM     11  C   UNL     1     -10.149  15.206  65.117  0.00  0.00    -0.000 A 
ATOM     12  C   UNL     1     -10.943  14.079  65.082  0.00  0.00    +0.001 A 
ATOM     13  C   UNL     1     -11.229  13.458  66.292  0.00  0.00    +0.015 A 
ATOM     14  C   UNL     1     -12.404  13.331  70.746  0.00  0.00    +0.015 A 
ATOM     15  C   UNL     1     -10.949  14.111  67.474  0.00  0.00    +0.048 A 
ENDROOT
BRANCH   1  16
ATOM     16  C   UNL     1     -12.008  12.171  68.439  0.00  0.00    +0.097 C 
BRANCH  16  18
ATOM     17  C   UNL     1     -11.012  10.566  69.889  0.00  0.00    +0.003 C 
ATOM     18  C   UNL     1     -10.503  11.503  68.621  0.00  0.00    +0.036 C 
BRANCH  18  19
ATOM     19  C   UNL     1     -10.850  10.304  67.533  0.00  0.00    +0.074 C 
BRANCH  19  20
ATOM     20  N   UNL     1      -9.621  10.310  66.767  0.00  0.00    -0.270 NA
ATOM     21  C   UNL     1      -8.690   9.351  67.292  0.00  0.00    +0.090 C 
ATOM     22  C   UNL     1      -9.965  10.081  65.381  0.00  0.00    +0.090 C 
ENDBRANCH  19  20
ENDBRANCH  18  19
ENDBRANCH  16  18
ENDBRANCH   1  16
TORSDOF 4
ENDMDL
MODEL 6
REMARK VINA RESULT:      -5.6      1.737      4.622
REMARK  Name = 
REMARK  4 active torsions:
REMARK  status: ('A' for Active; 'I' for Inactive)
REMARK    1  A    between atoms: C_2  and  C_3
REMARK    2  A    between atoms: C_2  and  C_7
REMARK    3  A    between atoms: C_3  and  N_4
REMARK    4  A    between atoms: C_7  and  N_8
REMARK                            x       y       z     vdW  Elec       q    Type
REMARK                         _______ _______ _______ _____ _____    ______ ____
ROOT
ATOM      1  N   UNL     1     -10.947  10.815  68.716  0.00  0.00    -0.287 N 
ATOM      2  C   UNL     1     -10.287  10.019  67.724  0.00  0.00    +0.048 A 
ATOM      3  C   UNL     1     -10.092   8.643  67.703  0.00  0.00    -0.008 A 
ATOM      4  C   UNL     1      -9.769   8.016  66.511  0.00  0.00    -0.003 A 
ATOM      5  C   UNL     1      -9.269   8.794  65.488  0.00  0.00    -0.000 A 
ATOM      6  C   UNL     1      -9.199  10.175  65.645  0.00  0.00    +0.001 A 
ATOM      7  C   UNL     1     -10.658   7.663  68.658  0.00  0.00    +0.032 C 
ATOM      8  C   UNL     1     -10.285   7.943  70.089  0.00  0.00    +0.032 C 
ATOM      9  C   UNL     1     -11.122   9.075  70.595  0.00  0.00    -0.008 A 
ATOM     10  C   UNL     1     -11.925   8.661  71.641  0.00  0.00    -0.003 A 
ATOM     11  C   UNL     1     -12.947   9.505  72.051  0.00  0.00    -0.000 A 
ATOM     12  C   UNL     1     -13.070  10.799  71.589  0.00  0.00    +0.001 A 
ATOM     13  C   UNL     1     -12.163  11.225  70.626  0.00  0.00    +0.015 A 
ATOM     14  C   UNL     1      -9.637  10.809  66.795  0.00  0.00    +0.015 A 
ATOM     15  C   UNL     1     -11.367  10.300  69.985  0.00  0.00    +0.048 A 
ENDROOT
BRANCH   1  16
ATOM     16  C   UNL     1     -10.657  12.234  68.733  0.00  0.00    +0.097 C 
BRANCH  16  18
ATOM     17  C   UNL     1     -12.021  14.167  68.999  0.00  0.00    +0.003 C 
ATOM     18  C   UNL     1     -11.918  12.923  67.909  0.00  0.00    +0.036 C 
BRANCH  18  19
ATOM     19  C   UNL     1     -10.881  13.788  66.949  0.00  0.00    +0.074 C 
BRANCH  19  20
ATOM     20  N   UNL     1     -11.800  14.192  65.905  0.00  0.00    -0.270 NA
ATOM     21  C   UNL     1     -11.153  15.064  64.967  0.00  0.00    +0.090 C 
ATOM     22  C   UNL     1     -12.335  12.991  65.301  0.00  0.00    +0.090 C 
ENDBRANCH  19  20
ENDBRANCH  18  19
ENDBRANCH  16  18
ENDBRANCH   1  16
TORSDOF 4
ENDMDL
MODEL 7
REMARK VINA RESULT:      -5.6      2.032      6.761
REMARK  Name = 
REMARK  4 active torsions:
REMARK  status: ('A' for Active; 'I' for Inactive)
REMARK    1  A    between atoms: C_2  and  C_3
REMARK    2  A    between atoms: C_2  and  C_7
REMARK    3  A    between atoms: C_3  and  N_4
REMARK    4  A    between atoms: C_7  and  N_8
REMARK                            x       y       z     vdW  Elec       q    Type
REMARK                         _______ _______ _______ _____ _____    ______ ____
ROOT
ATOM      1  N   UNL     1      -9.786  11.295  66.513  0.00  0.00    -0.287 N 
ATOM      2  C   UNL     1      -9.706  10.716  65.206  0.00  0.00    +0.048 A 
ATOM      3  C   UNL     1     -10.329  11.128  64.033  0.00  0.00    -0.008 A 
ATOM      4  C   UNL     1      -9.853  10.680  62.812  0.00  0.00    -0.003 A 
ATOM      5  C   UNL     1      -9.052   9.557  62.804  0.00  0.00    -0.000 A 
ATOM      6  C   UNL     1      -8.672   8.975  64.009  0.00  0.00    +0.001 A 
ATOM      7  C   UNL     1     -11.121  12.365  63.849  0.00  0.00    +0.032 C 
ATOM      8  C   UNL     1     -12.284  12.473  64.799  0.00  0.00    +0.032 C 
ATOM      9  C   UNL     1     -11.775  12.876  66.146  0.00  0.00    -0.008 A 
ATOM     10  C   UNL     1     -12.288  14.104  66.517  0.00  0.00    -0.003 A 
ATOM     11  C   UNL     1     -11.720  14.745  67.608  0.00  0.00    -0.000 A 
ATOM     12  C   UNL     1     -10.805  14.128  68.436  0.00  0.00    +0.001 A 
ATOM     13  C   UNL     1     -10.405  12.839  68.103  0.00  0.00    +0.015 A 
ATOM     14  C   UNL     1      -9.052   9.499  65.233  0.00  0.00    +0.015 A 
ATOM     15  C   UNL     1     -10.711  12.333  66.857  0.00  0.00    +0.048 A 
ENDROOT
BRANCH   1  16
ATOM     16  C   UNL     1      -9.404  10.463  67.635  0.00  0.00    +0.097 C 
BRANCH  16  18
ATOM     17  C   UNL     1     -10.395   8.326  67.987  0.00  0.00    +0.003 C 
ATOM     18  C   UNL     1     -10.840   9.902  68.242  0.00  0.00    +0.036 C 
BRANCH  18  19
ATOM     19  C   UNL     1     -10.233   9.873  69.783  0.00  0.00    +0.074 C 
BRANCH  19  20
ATOM     20  N   UNL     1     -11.444   9.555  70.512  0.00  0.00    -0.270 NA
ATOM     21  C   UNL     1     -11.132   8.941  71.772  0.00  0.00    +0.090 C 
ATOM     22  C   UNL     1     -12.214  10.772  70.639  0.00  0.00    +0.090 C 
ENDBRANCH  19  20
ENDBRANCH  18  19
ENDBRANCH  16  18
ENDBRANCH   1  16
TORSDOF 4
ENDMDL
MODEL 8
REMARK VINA RESULT:      -5.6      1.795      5.841
REMARK  Name = 
REMARK  4 active torsions:
REMARK  status: ('A' for Active; 'I' for Inactive)
REMARK    1  A    between atoms: C_2  and  C_3
REMARK    2  A    between atoms: C_2  and  C_7
REMARK    3  A    between atoms: C_3  and  N_4
REMARK    4  A    between atoms: C_7  and  N_8
REMARK                            x       y       z     vdW  Elec       q    Type
REMARK                         _______ _______ _______ _____ _____    ______ ____
ROOT
ATOM      1  N   UNL     1     -11.923  11.963  70.022  0.00  0.00    -0.287 N 
ATOM      2  C   UNL     1     -11.004  11.950  68.923  0.00  0.00    +0.048 A 
ATOM      3  C   UNL     1     -10.376  13.024  68.302  0.00  0.00    -0.008 A 
ATOM      4  C   UNL     1      -9.258  12.802  67.517  0.00  0.00    -0.003 A 
ATOM      5  C   UNL     1      -9.037  11.521  67.055  0.00  0.00    -0.000 A 
ATOM      6  C   UNL     1      -9.874  10.488  67.467  0.00  0.00    +0.001 A 
ATOM      7  C   UNL     1     -10.417  14.437  68.743  0.00  0.00    +0.032 C 
ATOM      8  C   UNL     1     -11.815  14.990  68.840  0.00  0.00    +0.032 C 
ATOM      9  C   UNL     1     -12.455  14.473  70.089  0.00  0.00    -0.008 A 
ATOM     10  C   UNL     1     -12.759  15.511  70.949  0.00  0.00    -0.003 A 
ATOM     11  C   UNL     1     -13.110  15.195  72.254  0.00  0.00    -0.000 A 
ATOM     12  C   UNL     1     -13.348  13.900  72.664  0.00  0.00    +0.001 A 
ATOM     13  C   UNL     1     -13.154  12.886  71.733  0.00  0.00    +0.015 A 
ATOM     14  C   UNL     1     -10.920  10.695  68.351  0.00  0.00    +0.015 A 
ATOM     15  C   UNL     1     -12.496  13.164  70.553  0.00  0.00    +0.048 A 
ENDROOT
BRANCH   1  16
ATOM     16  C   UNL     1     -12.753  10.791  70.210  0.00  0.00    +0.097 C 
BRANCH  16  18
ATOM     17  C   UNL     1     -13.644   9.367  71.897  0.00  0.00    +0.003 C 
ATOM     18  C   UNL     1     -12.189  10.106  71.609  0.00  0.00    +0.036 C 
BRANCH  18  19
ATOM     19  C   UNL     1     -11.625   8.781  70.790  0.00  0.00    +0.074 C 
BRANCH  19  20
ATOM     20  N   UNL     1     -10.294   8.697  71.355  0.00  0.00    -0.270 NA
ATOM     21  C   UNL     1     -10.326   8.053  72.637  0.00  0.00    +0.090 C 
ATOM     22  C   UNL     1      -9.449   8.025  70.393  0.00  0.00    +0.090 C 
ENDBRANCH  19  20
ENDBRANCH  18  19
ENDBRANCH  16  18
ENDBRANCH   1  16
TORSDOF 4
ENDMDL
MODEL 9
REMARK VINA RESULT:      -5.5      1.870      3.990
REMARK  Name = 
REMARK  4 active torsions:
REMARK  status: ('A' for Active; 'I' for Inactive)
REMARK    1  A    between atoms: C_2  and  C_3
REMARK    2  A    between atoms: C_2  and  C_7
REMARK    3  A    between atoms: C_3  and  N_4
REMARK    4  A    between atoms: C_7  and  N_8
REMARK                            x       y       z     vdW  Elec       q    Type
REMARK                         _______ _______ _______ _____ _____    ______ ____
ROOT
ATOM      1  N   UNL     1     -11.418  13.677  68.206  0.00  0.00    -0.287 N 
ATOM      2  C   UNL     1     -11.010  15.027  67.953  0.00  0.00    +0.048 A 
ATOM      3  C   UNL     1     -11.034  16.118  68.816  0.00  0.00    -0.008 A 
ATOM      4  C   UNL     1     -10.270  17.235  68.525  0.00  0.00    -0.003 A 
ATOM      5  C   UNL     1      -9.832  17.398  67.227  0.00  0.00    -0.000 A 
ATOM      6  C   UNL     1     -10.080  16.403  66.288  0.00  0.00    +0.001 A 
ATOM      7  C   UNL     1     -11.365  16.087  70.258  0.00  0.00    +0.032 C 
ATOM      8  C   UNL     1     -12.729  15.517  70.543  0.00  0.00    +0.032 C 
ATOM      9  C   UNL     1     -12.669  14.028  70.420  0.00  0.00    -0.008 A 
ATOM     10  C   UNL     1     -12.957  13.424  71.629  0.00  0.00    -0.003 A 
ATOM     11  C   UNL     1     -12.688  12.069  71.761  0.00  0.00    -0.000 A 
ATOM     12  C   UNL     1     -12.329  11.277  70.690  0.00  0.00    +0.001 A 
ATOM     13  C   UNL     1     -12.171  11.899  69.457  0.00  0.00    +0.015 A 
ATOM     14  C   UNL     1     -10.740  15.229  66.613  0.00  0.00    +0.015 A 
ATOM     15  C   UNL     1     -12.113  13.275  69.392  0.00  0.00    +0.048 A 
ENDROOT
BRANCH   1  16
ATOM     16  C   UNL     1     -11.697  12.840  67.057  0.00  0.00    +0.097 C 
BRANCH  16  18
ATOM     17  C   UNL     1      -9.817  11.408  67.344  0.00  0.00    +0.003 C 
ATOM     18  C   UNL     1     -10.226  12.645  66.320  0.00  0.00    +0.036 C 
BRANCH  18  19
ATOM     19  C   UNL     1     -10.864  11.585  65.218  0.00  0.00    +0.074 C 
BRANCH  19  20
ATOM     20  N   UNL     1     -10.597  12.318  63.998  0.00  0.00    -0.270 NA
ATOM     21  C   UNL     1      -9.784  11.540  63.106  0.00  0.00    +0.090 C 
ATOM     22  C   UNL     1     -11.869  12.705  63.429  0.00  0.00    +0.090 C 
ENDBRANCH  19  20
ENDBRANCH  18  19
ENDBRANCH  16  18
ENDBRANCH   1  16
TORSDOF 4
ENDMDL
