MODEL 1
REMARK VINA RESULT:      -6.3      0.000      0.000
REMARK  Name = 
REMARK  3 active torsions:
REMARK  status: ('A' for Active; 'I' for Inactive)
REMARK    1  A    between atoms: C_7  and  N_8
REMARK    2  A    between atoms: N_8  and  C_9
REMARK    3  A    between atoms: C_14  and  C_15
REMARK                            x       y       z     vdW  Elec       q    Type
REMARK                         _______ _______ _______ _____ _____    ______ ____
ROOT
ATOM      1  N   UNL     1     -11.833  11.812  66.912  0.00  0.00    -0.211 NA
ENDROOT
BRANCH   1   6
ATOM      2  C   UNL     1     -12.360  15.530  69.917  0.00  0.00    +0.032 C 
ATOM      3  C   UNL     1     -11.870  14.124  69.763  0.00  0.00    -0.010 A 
ATOM      4  C   UNL     1     -11.491  13.665  68.507  0.00  0.00    +0.070 A 
ATOM      5 CL   UNL     1     -11.367  14.807  67.178  0.00  0.00    -0.081 Cl
ATOM      6  C   UNL     1     -11.530  12.312  68.197  0.00  0.00    +0.091 A 
ATOM      7  C   UNL     1     -11.667  11.464  69.282  0.00  0.00    +0.074 A 
ATOM      8 CL   UNL     1     -11.296   9.768  69.010  0.00  0.00    -0.081 Cl
ATOM      9  C   UNL     1     -12.198  11.869  70.492  0.00  0.00    +0.012 A 
ATOM     10  C   UNL     1     -12.312  13.231  70.733  0.00  0.00    -0.002 A 
ENDBRANCH   1   6
BRANCH   1  11
ATOM     11  C   UNL     1     -10.885  11.558  65.896  0.00  0.00    +0.077 A 
ATOM     12  C   UNL     1     -11.179  12.062  64.635  0.00  0.00    +0.095 A 
ATOM     13  C   UNL     1     -10.292  11.733  63.619  0.00  0.00    +0.008 A 
ATOM     14  C   UNL     1      -9.505  10.592  63.694  0.00  0.00    +0.000 A 
ATOM     15  C   UNL     1      -9.585   9.804  64.835  0.00  0.00    +0.001 A 
ATOM     16  C   UNL     1     -10.036  10.461  65.975  0.00  0.00    +0.017 A 
BRANCH  12  17
ATOM     17  C   UNL     1     -12.462  12.704  64.331  0.00  0.00    +0.389 C 
ATOM     18  O   UNL     1     -13.399  11.993  63.578  0.00  0.00    -0.241 OA
ATOM     19  O   UNL     1     -12.402  13.946  64.081  0.00  0.00    -0.241 OA
ENDBRANCH  12  17
ENDBRANCH   1  11
TORSDOF 3
ENDMDL
MODEL 2
REMARK VINA RESULT:      -6.2      3.538      5.473
REMARK  Name = 
REMARK  3 active torsions:
REMARK  status: ('A' for Active; 'I' for Inactive)
REMARK    1  A    between atoms: C_7  and  N_8
REMARK    2  A    between atoms: N_8  and  C_9
REMARK    3  A    between atoms: C_14  and  C_15
REMARK                            x       y       z     vdW  Elec       q    Type
REMARK                         _______ _______ _______ _____ _____    ______ ____
ROOT
ATOM      1  N   UNL     1     -11.560  16.295  68.814  0.00  0.00    -0.211 NA
ENDROOT
BRANCH   1   6
ATOM      2  C   UNL     1     -11.026  11.795  67.205  0.00  0.00    +0.032 C 
ATOM      3  C   UNL     1     -11.760  12.690  68.154  0.00  0.00    -0.010 A 
ATOM      4  C   UNL     1     -11.887  14.042  67.859  0.00  0.00    +0.070 A 
ATOM      5 CL   UNL     1     -11.397  14.625  66.277  0.00  0.00    -0.081 Cl
ATOM      6  C   UNL     1     -12.071  14.980  68.867  0.00  0.00    +0.091 A 
ATOM      7  C   UNL     1     -12.419  14.458  70.100  0.00  0.00    +0.074 A 
ATOM      8 CL   UNL     1     -13.074  15.585  71.278  0.00  0.00    -0.081 Cl
ATOM      9  C   UNL     1     -12.149  13.154  70.469  0.00  0.00    +0.012 A 
ATOM     10  C   UNL     1     -11.801  12.252  69.473  0.00  0.00    -0.002 A 
ENDBRANCH   1   6
BRANCH   1  11
ATOM     11  C   UNL     1     -10.200  16.645  68.966  0.00  0.00    +0.077 A 
ATOM     12  C   UNL     1      -9.740  17.696  68.183  0.00  0.00    +0.095 A 
ATOM     13  C   UNL     1      -8.383  17.978  68.267  0.00  0.00    +0.008 A 
ATOM     14  C   UNL     1      -7.469  17.004  68.647  0.00  0.00    +0.000 A 
ATOM     15  C   UNL     1      -7.946  15.746  68.994  0.00  0.00    +0.001 A 
ATOM     16  C   UNL     1      -9.272  15.711  69.410  0.00  0.00    +0.017 A 
BRANCH  12  17
ATOM     17  C   UNL     1     -10.574  18.324  67.153  0.00  0.00    +0.389 C 
ATOM     18  O   UNL     1     -10.214  18.157  65.814  0.00  0.00    -0.241 OA
ATOM     19  O   UNL     1     -11.030  19.471  67.447  0.00  0.00    -0.241 OA
ENDBRANCH  12  17
ENDBRANCH   1  11
TORSDOF 3
ENDMDL
MODEL 3
REMARK VINA RESULT:      -6.2      1.451      1.959
REMARK  Name = 
REMARK  3 active torsions:
REMARK  status: ('A' for Active; 'I' for Inactive)
REMARK    1  A    between atoms: C_7  and  N_8
REMARK    2  A    between atoms: N_8  and  C_9
REMARK    3  A    between atoms: C_14  and  C_15
REMARK                            x       y       z     vdW  Elec       q    Type
REMARK                         _______ _______ _______ _____ _____    ______ ____
ROOT
ATOM      1  N   UNL     1     -11.552  13.033  66.159  0.00  0.00    -0.211 NA
ENDROOT
BRANCH   1   6
ATOM      2  C   UNL     1     -10.657  17.467  67.790  0.00  0.00    +0.032 C 
ATOM      3  C   UNL     1     -10.770  16.018  68.147  0.00  0.00    -0.010 A 
ATOM      4  C   UNL     1     -10.557  15.054  67.169  0.00  0.00    +0.070 A 
ATOM      5 CL   UNL     1      -9.928  15.545  65.604  0.00  0.00    -0.081 Cl
ATOM      6  C   UNL     1     -11.127  13.792  67.272  0.00  0.00    +0.091 A 
ATOM      7  C   UNL     1     -11.638  13.477  68.518  0.00  0.00    +0.074 A 
ATOM      8 CL   UNL     1     -11.973  11.781  68.828  0.00  0.00    -0.081 Cl
ATOM      9  C   UNL     1     -12.011  14.435  69.442  0.00  0.00    +0.012 A 
ATOM     10  C   UNL     1     -11.574  15.738  69.245  0.00  0.00    -0.002 A 
ENDBRANCH   1   6
BRANCH   1  11
ATOM     11  C   UNL     1     -10.713  12.228  65.357  0.00  0.00    +0.077 A 
ATOM     12  C   UNL     1     -11.037  12.150  64.008  0.00  0.00    +0.095 A 
ATOM     13  C   UNL     1     -10.266  11.288  63.239  0.00  0.00    +0.008 A 
ATOM     14  C   UNL     1      -9.609  10.207  63.813  0.00  0.00    +0.000 A 
ATOM     15  C   UNL     1      -9.696  10.031  65.188  0.00  0.00    +0.001 A 
ATOM     16  C   UNL     1      -9.989  11.181  65.913  0.00  0.00    +0.017 A 
BRANCH  12  17
ATOM     17  C   UNL     1     -12.257  12.752  63.463  0.00  0.00    +0.389 C 
ATOM     18  O   UNL     1     -12.436  14.131  63.599  0.00  0.00    -0.241 OA
ATOM     19  O   UNL     1     -13.311  12.058  63.591  0.00  0.00    -0.241 OA
ENDBRANCH  12  17
ENDBRANCH   1  11
TORSDOF 3
ENDMDL
MODEL 4
REMARK VINA RESULT:      -6.2      2.454      3.293
REMARK  Name = 
REMARK  3 active torsions:
REMARK  status: ('A' for Active; 'I' for Inactive)
REMARK    1  A    between atoms: C_7  and  N_8
REMARK    2  A    between atoms: N_8  and  C_9
REMARK    3  A    between atoms: C_14  and  C_15
REMARK                            x       y       z     vdW  Elec       q    Type
REMARK                         _______ _______ _______ _____ _____    ______ ____
ROOT
ATOM      1  N   UNL     1     -12.102  13.973  68.019  0.00  0.00    -0.211 NA
ENDROOT
BRANCH   1   6
ATOM      2  C   UNL     1     -13.794  13.540  72.500  0.00  0.00    +0.032 C 
ATOM      3  C   UNL     1     -12.816  13.022  71.492  0.00  0.00    -0.010 A 
ATOM      4  C   UNL     1     -12.381  13.857  70.470  0.00  0.00    +0.070 A 
ATOM      5 CL   UNL     1     -12.798  15.562  70.519  0.00  0.00    -0.081 Cl
ATOM      6  C   UNL     1     -11.922  13.336  69.267  0.00  0.00    +0.091 A 
ATOM      7  C   UNL     1     -11.646  11.981  69.280  0.00  0.00    +0.074 A 
ATOM      8 CL   UNL     1     -10.676  11.360  67.953  0.00  0.00    -0.081 Cl
ATOM      9  C   UNL     1     -12.204  11.108  70.194  0.00  0.00    +0.012 A 
ATOM     10  C   UNL     1     -12.813  11.642  71.321  0.00  0.00    -0.002 A 
ENDBRANCH   1   6
BRANCH   1  11
ATOM     11  C   UNL     1     -11.169  14.840  67.409  0.00  0.00    +0.077 A 
ATOM     12  C   UNL     1     -11.101  14.798  66.022  0.00  0.00    +0.095 A 
ATOM     13  C   UNL     1     -10.121  15.584  65.430  0.00  0.00    +0.008 A 
ATOM     14  C   UNL     1      -8.976  15.948  66.125  0.00  0.00    +0.000 A 
ATOM     15  C   UNL     1      -8.849  15.553  67.450  0.00  0.00    +0.001 A 
ATOM     16  C   UNL     1     -10.047  15.278  68.101  0.00  0.00    +0.017 A 
BRANCH  12  17
ATOM     17  C   UNL     1     -11.851  13.815  65.234  0.00  0.00    +0.389 C 
ATOM     18  O   UNL     1     -11.145  12.775  64.624  0.00  0.00    -0.241 OA
ATOM     19  O   UNL     1     -12.812  14.284  64.552  0.00  0.00    -0.241 OA
ENDBRANCH  12  17
ENDBRANCH   1  11
TORSDOF 3
ENDMDL
MODEL 5
REMARK VINA RESULT:      -6.0      2.280      3.542
REMARK  Name = 
REMARK  3 active torsions:
REMARK  status: ('A' for Active; 'I' for Inactive)
REMARK    1  A    between atoms: C_7  and  N_8
REMARK    2  A    between atoms: N_8  and  C_9
REMARK    3  A    between atoms: C_14  and  C_15
REMARK                            x       y       z     vdW  Elec       q    Type
REMARK                         _______ _______ _______ _____ _____    ______ ____
ROOT
ATOM      1  N   UNL     1     -11.781  11.793  67.262  0.00  0.00    -0.211 NA
ENDROOT
BRANCH   1   6
ATOM      2  C   UNL     1     -11.796   9.496  71.487  0.00  0.00    +0.032 C 
ATOM      3  C   UNL     1     -11.082   9.686  70.185  0.00  0.00    -0.010 A 
ATOM      4  C   UNL     1     -11.235  10.879  69.489  0.00  0.00    +0.070 A 
ATOM      5 CL   UNL     1     -12.064  12.222  70.260  0.00  0.00    -0.081 Cl
ATOM      6  C   UNL     1     -11.052  10.934  68.114  0.00  0.00    +0.091 A 
ATOM      7  C   UNL     1     -10.428   9.832  67.559  0.00  0.00    +0.074 A 
ATOM      8 CL   UNL     1      -9.792  10.020  65.932  0.00  0.00    -0.081 Cl
ATOM      9  C   UNL     1     -10.410   8.591  68.167  0.00  0.00    +0.012 A 
ATOM     10  C   UNL     1     -10.755   8.516  69.509  0.00  0.00    -0.002 A 
ENDBRANCH   1   6
BRANCH   1  11
ATOM     11  C   UNL     1     -11.330  13.048  66.796  0.00  0.00    +0.077 A 
ATOM     12  C   UNL     1     -11.565  13.330  65.456  0.00  0.00    +0.095 A 
ATOM     13  C   UNL     1     -11.041  14.525  64.978  0.00  0.00    +0.008 A 
ATOM     14  C   UNL     1      -9.944  15.121  65.585  0.00  0.00    +0.000 A 
ATOM     15  C   UNL     1      -9.406  14.524  66.718  0.00  0.00    +0.001 A 
ATOM     16  C   UNL     1     -10.278  13.703  67.423  0.00  0.00    +0.017 A 
BRANCH  12  17
ATOM     17  C   UNL     1     -12.124  12.336  64.535  0.00  0.00    +0.389 C 
ATOM     18  O   UNL     1     -11.411  12.032  63.372  0.00  0.00    -0.241 OA
ATOM     19  O   UNL     1     -13.385  12.368  64.399  0.00  0.00    -0.241 OA
ENDBRANCH  12  17
ENDBRANCH   1  11
TORSDOF 3
ENDMDL
MODEL 6
REMARK VINA RESULT:      -5.7      2.404      5.633
REMARK  Name = 
REMARK  3 active torsions:
REMARK  status: ('A' for Active; 'I' for Inactive)
REMARK    1  A    between atoms: C_7  and  N_8
REMARK    2  A    between atoms: N_8  and  C_9
REMARK    3  A    between atoms: C_14  and  C_15
REMARK                            x       y       z     vdW  Elec       q    Type
REMARK                         _______ _______ _______ _____ _____    ______ ____
ROOT
ATOM      1  N   UNL     1     -10.951  13.096  68.527  0.00  0.00    -0.211 NA
ENDROOT
BRANCH   1   6
ATOM      2  C   UNL     1     -11.386  12.584  63.765  0.00  0.00    +0.032 C 
ATOM      3  C   UNL     1     -11.360  11.882  65.087  0.00  0.00    -0.010 A 
ATOM      4  C   UNL     1     -11.714  12.577  66.237  0.00  0.00    +0.070 A 
ATOM      5 CL   UNL     1     -12.412  14.182  66.089  0.00  0.00    -0.081 Cl
ATOM      6  C   UNL     1     -11.238  12.189  67.483  0.00  0.00    +0.091 A 
ATOM      7  C   UNL     1     -10.666  10.931  67.528  0.00  0.00    +0.074 A 
ATOM      8 CL   UNL     1     -10.442  10.223  69.120  0.00  0.00    -0.081 Cl
ATOM      9  C   UNL     1     -10.157  10.294  66.412  0.00  0.00    +0.012 A 
ATOM     10  C   UNL     1     -10.505  10.788  65.163  0.00  0.00    -0.002 A 
ENDBRANCH   1   6
BRANCH   1  11
ATOM     11  C   UNL     1     -11.901  13.620  69.431  0.00  0.00    +0.077 A 
ATOM     12  C   UNL     1     -11.900  14.999  69.600  0.00  0.00    +0.095 A 
ATOM     13  C   UNL     1     -12.772  15.503  70.556  0.00  0.00    +0.008 A 
ATOM     14  C   UNL     1     -13.203  14.719  71.618  0.00  0.00    +0.000 A 
ATOM     15  C   UNL     1     -12.784  13.397  71.681  0.00  0.00    +0.001 A 
ATOM     16  C   UNL     1     -12.403  12.840  70.465  0.00  0.00    +0.017 A 
BRANCH  12  17
ATOM     17  C   UNL     1     -10.885  15.859  68.984  0.00  0.00    +0.389 C 
ATOM     18  O   UNL     1      -9.617  15.914  69.569  0.00  0.00    -0.241 OA
ATOM     19  O   UNL     1     -11.312  16.961  68.524  0.00  0.00    -0.241 OA
ENDBRANCH  12  17
ENDBRANCH   1  11
TORSDOF 3
ENDMDL
MODEL 7
REMARK VINA RESULT:      -5.7      2.827      5.998
REMARK  Name = 
REMARK  3 active torsions:
REMARK  status: ('A' for Active; 'I' for Inactive)
REMARK    1  A    between atoms: C_7  and  N_8
REMARK    2  A    between atoms: N_8  and  C_9
REMARK    3  A    between atoms: C_14  and  C_15
REMARK                            x       y       z     vdW  Elec       q    Type
REMARK                         _______ _______ _______ _____ _____    ______ ____
ROOT
ATOM      1  N   UNL     1     -10.251  14.574  66.644  0.00  0.00    -0.211 NA
ENDROOT
BRANCH   1   6
ATOM      2  C   UNL     1     -10.101  10.030  65.076  0.00  0.00    +0.032 C 
ATOM      3  C   UNL     1     -10.346  11.458  64.704  0.00  0.00    -0.010 A 
ATOM      4  C   UNL     1      -9.753  12.470  65.450  0.00  0.00    +0.070 A 
ATOM      5 CL   UNL     1      -8.547  12.053  66.656  0.00  0.00    -0.081 Cl
ATOM      6  C   UNL     1     -10.313  13.740  65.505  0.00  0.00    +0.091 A 
ATOM      7  C   UNL     1     -11.284  13.997  64.554  0.00  0.00    +0.074 A 
ATOM      8 CL   UNL     1     -11.711  15.681  64.297  0.00  0.00    -0.081 Cl
ATOM      9  C   UNL     1     -12.000  12.999  63.920  0.00  0.00    +0.012 A 
ATOM     10  C   UNL     1     -11.525  11.698  64.007  0.00  0.00    -0.002 A 
ENDBRANCH   1   6
BRANCH   1  11
ATOM     11  C   UNL     1     -11.173  14.556  67.713  0.00  0.00    +0.077 A 
ATOM     12  C   UNL     1     -11.262  15.717  68.471  0.00  0.00    +0.095 A 
ATOM     13  C   UNL     1     -12.102  15.668  69.576  0.00  0.00    +0.008 A 
ATOM     14  C   UNL     1     -12.400  14.462  70.198  0.00  0.00    +0.000 A 
ATOM     15  C   UNL     1     -11.880  13.291  69.660  0.00  0.00    +0.001 A 
ATOM     16  C   UNL     1     -11.544  13.359  68.313  0.00  0.00    +0.017 A 
BRANCH  12  17
ATOM     17  C   UNL     1     -10.358  16.853  68.268  0.00  0.00    +0.389 C 
ATOM     18  O   UNL     1      -9.181  16.908  69.018  0.00  0.00    -0.241 OA
ATOM     19  O   UNL     1     -10.924  17.972  68.075  0.00  0.00    -0.241 OA
ENDBRANCH  12  17
ENDBRANCH   1  11
TORSDOF 3
ENDMDL
MODEL 8
REMARK VINA RESULT:      -5.7      4.494      6.442
REMARK  Name = 
REMARK  3 active torsions:
REMARK  status: ('A' for Active; 'I' for Inactive)
REMARK    1  A    between atoms: C_7  and  N_8
REMARK    2  A    between atoms: N_8  and  C_9
REMARK    3  A    between atoms: C_14  and  C_15
REMARK                            x       y       z     vdW  Elec       q    Type
REMARK                         _______ _______ _______ _____ _____    ______ ____
ROOT
ATOM      1  N   UNL     1      -9.537  16.154  66.920  0.00  0.00    -0.211 NA
ENDROOT
BRANCH   1   6
ATOM      2  C   UNL     1     -12.320  12.689  65.083  0.00  0.00    +0.032 C 
ATOM      3  C   UNL     1     -11.960  13.465  66.312  0.00  0.00    -0.010 A 
ATOM      4  C   UNL     1     -11.421  14.739  66.183  0.00  0.00    +0.070 A 
ATOM      5 CL   UNL     1     -11.396  15.503  64.602  0.00  0.00    -0.081 Cl
ATOM      6  C   UNL     1     -10.616  15.279  67.177  0.00  0.00    +0.091 A 
ATOM      7  C   UNL     1     -10.649  14.612  68.388  0.00  0.00    +0.074 A 
ATOM      8 CL   UNL     1     -10.009  15.471  69.780  0.00  0.00    -0.081 Cl
ATOM      9  C   UNL     1     -11.028  13.288  68.508  0.00  0.00    +0.012 A 
ATOM     10  C   UNL     1     -11.690  12.699  67.440  0.00  0.00    -0.002 A 
ENDBRANCH   1   6
BRANCH   1  11
ATOM     11  C   UNL     1      -9.636  17.560  66.826  0.00  0.00    +0.077 A 
ATOM     12  C   UNL     1      -8.499  18.232  66.395  0.00  0.00    +0.095 A 
ATOM     13  C   UNL     1      -8.569  19.619  66.390  0.00  0.00    +0.008 A 
ATOM     14  C   UNL     1      -9.445  20.296  67.227  0.00  0.00    +0.000 A 
ATOM     15  C   UNL     1     -10.293  19.556  68.041  0.00  0.00    +0.001 A 
ATOM     16  C   UNL     1     -10.550  18.261  67.602  0.00  0.00    +0.017 A 
BRANCH  12  17
ATOM     17  C   UNL     1      -7.222  17.546  66.178  0.00  0.00    +0.389 C 
ATOM     18  O   UNL     1      -6.428  17.252  67.290  0.00  0.00    -0.241 OA
ATOM     19  O   UNL     1      -6.583  17.900  65.141  0.00  0.00    -0.241 OA
ENDBRANCH  12  17
ENDBRANCH   1  11
TORSDOF 3
ENDMDL
MODEL 9
REMARK VINA RESULT:      -5.5      3.279      4.412
REMARK  Name = 
REMARK  3 active torsions:
REMARK  status: ('A' for Active; 'I' for Inactive)
REMARK    1  A    between atoms: C_7  and  N_8
REMARK    2  A    between atoms: N_8  and  C_9
REMARK    3  A    between atoms: C_14  and  C_15
REMARK                            x       y       z     vdW  Elec       q    Type
REMARK                         _______ _______ _______ _____ _____    ______ ____
ROOT
ATOM      1  N   UNL     1     -10.590  13.410  68.761  0.00  0.00    -0.211 NA
ENDROOT
BRANCH   1   6
ATOM      2  C   UNL     1     -12.558   9.961  71.474  0.00  0.00    +0.032 C 
ATOM      3  C   UNL     1     -12.713  11.348  70.933  0.00  0.00    -0.010 A 
ATOM      4  C   UNL     1     -12.067  11.698  69.753  0.00  0.00    +0.070 A 
ATOM      5 CL   UNL     1     -11.282  10.448  68.802  0.00  0.00    -0.081 Cl
ATOM      6  C   UNL     1     -11.741  13.020  69.481  0.00  0.00    +0.091 A 
ATOM      7  C   UNL     1     -12.361  13.957  70.288  0.00  0.00    +0.074 A 
ATOM      8 CL   UNL     1     -12.331  15.623  69.730  0.00  0.00    -0.081 Cl
ATOM      9  C   UNL     1     -12.864  13.657  71.540  0.00  0.00    +0.012 A 
ATOM     10  C   UNL     1     -13.034  12.321  71.873  0.00  0.00    -0.002 A 
ENDBRANCH   1   6
BRANCH   1  11
ATOM     11  C   UNL     1     -10.572  13.779  67.398  0.00  0.00    +0.077 A 
ATOM     12  C   UNL     1      -9.764  14.857  67.060  0.00  0.00    +0.095 A 
ATOM     13  C   UNL     1      -9.817  15.275  65.737  0.00  0.00    +0.008 A 
ATOM     14  C   UNL     1     -10.935  15.030  64.951  0.00  0.00    +0.000 A 
ATOM     15  C   UNL     1     -11.988  14.311  65.500  0.00  0.00    +0.001 A 
ATOM     16  C   UNL     1     -11.647  13.488  66.568  0.00  0.00    +0.017 A 
BRANCH  12  17
ATOM     17  C   UNL     1      -9.073  15.662  68.072  0.00  0.00    +0.389 C 
ATOM     18  O   UNL     1      -9.479  16.985  68.261  0.00  0.00    -0.241 OA
ATOM     19  O   UNL     1      -7.822  15.466  68.163  0.00  0.00    -0.241 OA
ENDBRANCH  12  17
ENDBRANCH   1  11
TORSDOF 3
ENDMDL
