MODEL 1
REMARK VINA RESULT:      -7.1      0.000      0.000
REMARK  Name = 
REMARK  1 active torsions:
REMARK  status: ('A' for Active; 'I' for Inactive)
REMARK    1  A    between atoms: C_10  and  C_11
REMARK                            x       y       z     vdW  Elec       q    Type
REMARK                         _______ _______ _______ _____ _____    ______ ____
ROOT
ATOM      1  C   UNL     1      -7.350  18.677  67.201  0.00  0.00    +0.090 C 
ATOM      2  N   UNL     1      -8.142  18.293  68.345  0.00  0.00    -0.271 NA
ATOM      3  C   UNL     1      -8.072  16.898  68.659  0.00  0.00    +0.077 C 
ATOM      4  C   UNL     1      -8.779  16.154  67.548  0.00  0.00    +0.039 C 
ATOM      5  C   UNL     1     -10.201  16.617  67.585  0.00  0.00    -0.039 C 
ATOM      6  C   UNL     1     -11.105  15.637  67.661  0.00  0.00    +0.026 C 
ATOM      7  C   UNL     1     -11.527  15.217  69.006  0.00  0.00    -0.002 A 
ATOM      8  C   UNL     1     -11.838  13.953  69.495  0.00  0.00    -0.020 A 
ATOM      9  C   UNL     1     -12.260  13.781  70.800  0.00  0.00    -0.004 A 
ATOM     10  C   UNL     1     -12.062  14.813  71.708  0.00  0.00    -0.000 A 
ATOM     11  C   UNL     1     -11.689  16.050  71.206  0.00  0.00    -0.000 A 
ATOM     12  C   UNL     1     -11.502  12.650  68.837  0.00  0.00    +0.051 C 
ATOM     13  C   UNL     1     -12.063  12.573  67.448  0.00  0.00    +0.112 C 
ATOM     14  N   UNL     1     -11.353  13.370  66.484  0.00  0.00    -0.308 N 
ATOM     15  C   UNL     1     -10.631  12.793  65.493  0.00  0.00    +0.123 A 
ATOM     16  C   UNL     1     -10.289  13.863  64.675  0.00  0.00    +0.121 A 
ATOM     17  N   UNL     1     -10.668  15.009  65.294  0.00  0.00    -0.225 NA
ATOM     18  C   UNL     1     -11.309  16.238  69.889  0.00  0.00    -0.000 A 
ATOM     19  C   UNL     1     -11.091  14.701  66.527  0.00  0.00    +0.143 A 
ATOM     20  C   UNL     1     -10.563  18.002  67.915  0.00  0.00    +0.039 C 
ATOM     21  C   UNL     1      -9.447  18.864  68.376  0.00  0.00    +0.077 C 
ENDROOT
BRANCH  15  22
ATOM     22  C   UNL     1      -9.985  11.476  65.483  0.00  0.00    +0.253 C 
ATOM     23  O   UNL     1     -10.334  10.549  64.705  0.00  0.00    -0.281 OA
ENDBRANCH  15  22
TORSDOF 1
ENDMDL
MODEL 2
REMARK VINA RESULT:      -6.9      2.083      2.770
REMARK  Name = 
REMARK  1 active torsions:
REMARK  status: ('A' for Active; 'I' for Inactive)
REMARK    1  A    between atoms: C_10  and  C_11
REMARK                            x       y       z     vdW  Elec       q    Type
REMARK                         _______ _______ _______ _____ _____    ______ ____
ROOT
ATOM      1  C   UNL     1      -8.221  16.607  67.492  0.00  0.00    +0.090 C 
ATOM      2  N   UNL     1      -9.147  16.687  68.596  0.00  0.00    -0.271 NA
ATOM      3  C   UNL     1      -9.076  15.576  69.497  0.00  0.00    +0.077 C 
ATOM      4  C   UNL     1      -9.604  14.368  68.756  0.00  0.00    +0.039 C 
ATOM      5  C   UNL     1     -11.033  14.676  68.434  0.00  0.00    -0.039 C 
ATOM      6  C   UNL     1     -11.907  13.751  68.836  0.00  0.00    +0.026 C 
ATOM      7  C   UNL     1     -12.492  13.917  70.175  0.00  0.00    -0.002 A 
ATOM      8  C   UNL     1     -12.826  12.966  71.133  0.00  0.00    -0.020 A 
ATOM      9  C   UNL     1     -13.415  13.339  72.328  0.00  0.00    -0.004 A 
ATOM     10  C   UNL     1     -13.372  14.674  72.705  0.00  0.00    -0.000 A 
ATOM     11  C   UNL     1     -12.973  15.601  71.754  0.00  0.00    -0.000 A 
ATOM     12  C   UNL     1     -12.364  11.542  71.155  0.00  0.00    +0.051 C 
ATOM     13  C   UNL     1     -12.731  10.824  69.889  0.00  0.00    +0.112 C 
ATOM     14  N   UNL     1     -11.924  11.185  68.755  0.00  0.00    -0.308 N 
ATOM     15  C   UNL     1     -11.058  10.302  68.202  0.00  0.00    +0.123 A 
ATOM     16  C   UNL     1     -10.643  10.939  67.038  0.00  0.00    +0.121 A 
ATOM     17  N   UNL     1     -11.138  12.203  67.047  0.00  0.00    -0.225 NA
ATOM     18  C   UNL     1     -12.427  15.234  70.537  0.00  0.00    -0.000 A 
ATOM     19  C   UNL     1     -11.712  12.422  68.237  0.00  0.00    +0.143 A 
ATOM     20  C   UNL     1     -11.478  16.031  68.081  0.00  0.00    +0.039 C 
ATOM     21  C   UNL     1     -10.461  17.100  68.233  0.00  0.00    +0.077 C 
ENDROOT
BRANCH  15  22
ATOM     22  C   UNL     1     -10.376   9.172  68.841  0.00  0.00    +0.253 C 
ATOM     23  O   UNL     1      -9.531   9.317  69.764  0.00  0.00    -0.281 OA
ENDBRANCH  15  22
TORSDOF 1
ENDMDL
MODEL 3
REMARK VINA RESULT:      -6.8      2.450      5.171
REMARK  Name = 
REMARK  1 active torsions:
REMARK  status: ('A' for Active; 'I' for Inactive)
REMARK    1  A    between atoms: C_10  and  C_11
REMARK                            x       y       z     vdW  Elec       q    Type
REMARK                         _______ _______ _______ _____ _____    ______ ____
ROOT
ATOM      1  C   UNL     1     -10.387  11.717  63.396  0.00  0.00    +0.090 C 
ATOM      2  N   UNL     1     -10.903  11.425  64.712  0.00  0.00    -0.271 NA
ATOM      3  C   UNL     1     -11.746  12.452  65.248  0.00  0.00    +0.077 C 
ATOM      4  C   UNL     1     -10.865  13.647  65.535  0.00  0.00    +0.039 C 
ATOM      5  C   UNL     1      -9.886  13.195  66.572  0.00  0.00    -0.039 C 
ATOM      6  C   UNL     1      -9.831  13.966  67.661  0.00  0.00    +0.026 C 
ATOM      7  C   UNL     1     -10.717  13.610  68.781  0.00  0.00    -0.002 A 
ATOM      8  C   UNL     1     -11.410  14.424  69.669  0.00  0.00    -0.020 A 
ATOM      9  C   UNL     1     -12.164  13.877  70.692  0.00  0.00    -0.004 A 
ATOM     10  C   UNL     1     -12.489  12.528  70.633  0.00  0.00    -0.000 A 
ATOM     11  C   UNL     1     -11.834  11.746  69.695  0.00  0.00    -0.000 A 
ATOM     12  C   UNL     1     -11.679  15.887  69.495  0.00  0.00    +0.051 C 
ATOM     13  C   UNL     1     -10.408  16.664  69.318  0.00  0.00    +0.112 C 
ATOM     14  N   UNL     1      -9.800  16.507  68.024  0.00  0.00    -0.308 N 
ATOM     15  C   UNL     1      -9.752  17.537  67.143  0.00  0.00    +0.123 A 
ATOM     16  C   UNL     1      -8.923  17.061  66.134  0.00  0.00    +0.121 A 
ATOM     17  N   UNL     1      -8.668  15.751  66.376  0.00  0.00    -0.225 NA
ATOM     18  C   UNL     1     -11.040  12.285  68.698  0.00  0.00    -0.000 A 
ATOM     19  C   UNL     1      -9.427  15.358  67.407  0.00  0.00    +0.143 A 
ATOM     20  C   UNL     1      -9.337  11.833  66.585  0.00  0.00    +0.039 C 
ATOM     21  C   UNL     1      -9.942  10.888  65.616  0.00  0.00    +0.077 C 
ENDROOT
BRANCH  15  22
ATOM     22  C   UNL     1     -10.662  18.680  67.027  0.00  0.00    +0.253 C 
ATOM     23  O   UNL     1     -10.524  19.578  66.154  0.00  0.00    -0.281 OA
ENDBRANCH  15  22
TORSDOF 1
ENDMDL
MODEL 4
REMARK VINA RESULT:      -6.6      3.047      6.739
REMARK  Name = 
REMARK  1 active torsions:
REMARK  status: ('A' for Active; 'I' for Inactive)
REMARK    1  A    between atoms: C_10  and  C_11
REMARK                            x       y       z     vdW  Elec       q    Type
REMARK                         _______ _______ _______ _____ _____    ______ ____
ROOT
ATOM      1  C   UNL     1      -8.096   9.037  70.259  0.00  0.00    +0.090 C 
ATOM      2  N   UNL     1      -8.180   9.022  68.818  0.00  0.00    -0.271 NA
ATOM      3  C   UNL     1      -7.973  10.301  68.209  0.00  0.00    +0.077 C 
ATOM      4  C   UNL     1      -9.165  11.162  68.565  0.00  0.00    +0.039 C 
ATOM      5  C   UNL     1     -10.353  10.489  67.952  0.00  0.00    -0.039 C 
ATOM      6  C   UNL     1     -11.097  11.274  67.169  0.00  0.00    +0.026 C 
ATOM      7  C   UNL     1     -10.760  11.304  65.737  0.00  0.00    -0.002 A 
ATOM      8  C   UNL     1     -10.786  12.359  64.831  0.00  0.00    -0.020 A 
ATOM      9  C   UNL     1     -10.467  12.160  63.501  0.00  0.00    -0.004 A 
ATOM     10  C   UNL     1      -9.812  10.991  63.139  0.00  0.00    -0.000 A 
ATOM     11  C   UNL     1      -9.739   9.974  64.079  0.00  0.00    -0.000 A 
ATOM     12  C   UNL     1     -10.858  13.814  65.180  0.00  0.00    +0.051 C 
ATOM     13  C   UNL     1     -12.062  14.120  66.020  0.00  0.00    +0.112 C 
ATOM     14  N   UNL     1     -11.950  13.684  67.386  0.00  0.00    -0.308 N 
ATOM     15  C   UNL     1     -11.859  14.578  68.402  0.00  0.00    +0.123 A 
ATOM     16  C   UNL     1     -11.981  13.789  69.540  0.00  0.00    +0.121 A 
ATOM     17  N   UNL     1     -11.967  12.488  69.158  0.00  0.00    -0.225 NA
ATOM     18  C   UNL     1     -10.101  10.154  65.402  0.00  0.00    -0.000 A 
ATOM     19  C   UNL     1     -11.688  12.436  67.849  0.00  0.00    +0.143 A 
ATOM     20  C   UNL     1     -10.472   9.026  67.884  0.00  0.00    +0.039 C 
ATOM     21  C   UNL     1      -9.270   8.264  68.300  0.00  0.00    +0.077 C 
ENDROOT
BRANCH  15  22
ATOM     22  C   UNL     1     -11.329  15.945  68.368  0.00  0.00    +0.253 C 
ATOM     23  O   UNL     1     -11.313  16.697  69.379  0.00  0.00    -0.281 OA
ENDBRANCH  15  22
TORSDOF 1
ENDMDL
MODEL 5
REMARK VINA RESULT:      -6.3      2.015      2.925
REMARK  Name = 
REMARK  1 active torsions:
REMARK  status: ('A' for Active; 'I' for Inactive)
REMARK    1  A    between atoms: C_10  and  C_11
REMARK                            x       y       z     vdW  Elec       q    Type
REMARK                         _______ _______ _______ _____ _____    ______ ____
ROOT
ATOM      1  C   UNL     1     -10.558  19.389  66.274  0.00  0.00    +0.090 C 
ATOM      2  N   UNL     1      -9.553  18.682  67.031  0.00  0.00    -0.271 NA
ATOM      3  C   UNL     1      -8.954  17.589  66.327  0.00  0.00    +0.077 C 
ATOM      4  C   UNL     1     -10.015  16.521  66.176  0.00  0.00    +0.039 C 
ATOM      5  C   UNL     1     -10.372  16.100  67.567  0.00  0.00    -0.039 C 
ATOM      6  C   UNL     1     -10.291  14.786  67.790  0.00  0.00    +0.026 C 
ATOM      7  C   UNL     1      -9.008  14.269  68.292  0.00  0.00    -0.002 A 
ATOM      8  C   UNL     1      -8.349  13.078  68.011  0.00  0.00    -0.020 A 
ATOM      9  C   UNL     1      -7.155  12.763  68.632  0.00  0.00    -0.004 A 
ATOM     10  C   UNL     1      -6.455  13.770  69.283  0.00  0.00    -0.000 A 
ATOM     11  C   UNL     1      -7.107  14.975  69.496  0.00  0.00    -0.000 A 
ATOM     12  C   UNL     1      -8.642  12.162  66.862  0.00  0.00    +0.051 C 
ATOM     13  C   UNL     1     -10.073  11.711  66.868  0.00  0.00    +0.112 C 
ATOM     14  N   UNL     1     -11.008  12.720  66.447  0.00  0.00    -0.308 N 
ATOM     15  C   UNL     1     -11.686  12.603  65.279  0.00  0.00    +0.123 A 
ATOM     16  C   UNL     1     -12.614  13.636  65.339  0.00  0.00    +0.121 A 
ATOM     17  N   UNL     1     -12.334  14.396  66.427  0.00  0.00    -0.225 NA
ATOM     18  C   UNL     1      -8.326  15.278  68.914  0.00  0.00    -0.000 A 
ATOM     19  C   UNL     1     -11.182  13.966  66.956  0.00  0.00    +0.143 A 
ATOM     20  C   UNL     1     -10.415  17.053  68.684  0.00  0.00    +0.039 C 
ATOM     21  C   UNL     1      -9.914  18.417  68.384  0.00  0.00    +0.077 C 
ENDROOT
BRANCH  15  22
ATOM     22  C   UNL     1     -11.292  11.884  64.064  0.00  0.00    +0.253 C 
ATOM     23  O   UNL     1     -10.262  12.178  63.400  0.00  0.00    -0.281 OA
ENDBRANCH  15  22
TORSDOF 1
ENDMDL
MODEL 6
REMARK VINA RESULT:      -6.1      2.656      5.899
REMARK  Name = 
REMARK  1 active torsions:
REMARK  status: ('A' for Active; 'I' for Inactive)
REMARK    1  A    between atoms: C_10  and  C_11
REMARK                            x       y       z     vdW  Elec       q    Type
REMARK                         _______ _______ _______ _____ _____    ______ ____
ROOT
ATOM      1  C   UNL     1     -10.842  12.714  66.184  0.00  0.00    +0.090 C 
ATOM      2  N   UNL     1     -11.086  14.136  66.151  0.00  0.00    -0.271 NA
ATOM      3  C   UNL     1      -9.960  14.910  65.721  0.00  0.00    +0.077 C 
ATOM      4  C   UNL     1      -8.912  14.816  66.808  0.00  0.00    +0.039 C 
ATOM      5  C   UNL     1      -9.527  15.436  68.024  0.00  0.00    -0.039 C 
ATOM      6  C   UNL     1      -8.797  16.404  68.585  0.00  0.00    +0.026 C 
ATOM      7  C   UNL     1      -9.046  17.781  68.131  0.00  0.00    -0.002 A 
ATOM      8  C   UNL     1      -8.161  18.835  67.937  0.00  0.00    -0.020 A 
ATOM      9  C   UNL     1      -8.616  20.080  67.541  0.00  0.00    -0.004 A 
ATOM     10  C   UNL     1      -9.900  20.188  67.026  0.00  0.00    -0.000 A 
ATOM     11  C   UNL     1     -10.748  19.101  67.171  0.00  0.00    -0.000 A 
ATOM     12  C   UNL     1      -6.671  18.724  67.837  0.00  0.00    +0.051 C 
ATOM     13  C   UNL     1      -6.084  18.069  69.052  0.00  0.00    +0.112 C 
ATOM     14  N   UNL     1      -6.297  16.648  69.113  0.00  0.00    -0.308 N 
ATOM     15  C   UNL     1      -5.266  15.778  68.983  0.00  0.00    +0.123 A 
ATOM     16  C   UNL     1      -5.834  14.551  69.305  0.00  0.00    +0.121 A 
ATOM     17  N   UNL     1      -7.172  14.725  69.439  0.00  0.00    -0.225 NA
ATOM     18  C   UNL     1     -10.308  17.865  67.612  0.00  0.00    -0.000 A 
ATOM     19  C   UNL     1      -7.474  15.974  69.064  0.00  0.00    +0.143 A 
ATOM     20  C   UNL     1     -10.954  15.291  68.337  0.00  0.00    +0.039 C 
ATOM     21  C   UNL     1     -11.779  14.642  67.289  0.00  0.00    +0.077 C 
ENDROOT
BRANCH  15  22
ATOM     22  C   UNL     1      -3.999  15.967  68.269  0.00  0.00    +0.253 C 
ATOM     23  O   UNL     1      -3.887  15.810  67.023  0.00  0.00    -0.281 OA
ENDBRANCH  15  22
TORSDOF 1
ENDMDL
MODEL 7
REMARK VINA RESULT:      -6.1      3.179      4.911
REMARK  Name = 
REMARK  1 active torsions:
REMARK  status: ('A' for Active; 'I' for Inactive)
REMARK    1  A    between atoms: C_10  and  C_11
REMARK                            x       y       z     vdW  Elec       q    Type
REMARK                         _______ _______ _______ _____ _____    ______ ____
ROOT
ATOM      1  C   UNL     1      -4.900  21.620  66.594  0.00  0.00    +0.090 C 
ATOM      2  N   UNL     1      -4.593  20.494  67.443  0.00  0.00    -0.271 NA
ATOM      3  C   UNL     1      -4.939  19.225  66.875  0.00  0.00    +0.077 C 
ATOM      4  C   UNL     1      -6.449  19.155  66.827  0.00  0.00    +0.039 C 
ATOM      5  C   UNL     1      -6.908  19.222  68.250  0.00  0.00    -0.039 C 
ATOM      6  C   UNL     1      -7.723  18.232  68.621  0.00  0.00    +0.026 C 
ATOM      7  C   UNL     1      -7.101  17.030  69.198  0.00  0.00    -0.002 A 
ATOM      8  C   UNL     1      -7.442  15.690  69.063  0.00  0.00    -0.020 A 
ATOM      9  C   UNL     1      -6.740  14.707  69.737  0.00  0.00    -0.004 A 
ATOM     10  C   UNL     1      -5.504  15.025  70.282  0.00  0.00    -0.000 A 
ATOM     11  C   UNL     1      -5.153  16.364  70.348  0.00  0.00    -0.000 A 
ATOM     12  C   UNL     1      -8.351  15.116  68.020  0.00  0.00    +0.051 C 
ATOM     13  C   UNL     1      -9.705  15.761  68.053  0.00  0.00    +0.112 C 
ATOM     14  N   UNL     1      -9.734  17.091  67.506  0.00  0.00    -0.308 N 
ATOM     15  C   UNL     1     -10.385  17.358  66.347  0.00  0.00    +0.123 A 
ATOM     16  C   UNL     1     -10.362  18.746  66.274  0.00  0.00    +0.121 A 
ATOM     17  N   UNL     1      -9.573  19.210  67.275  0.00  0.00    -0.225 NA
ATOM     18  C   UNL     1      -5.878  17.358  69.715  0.00  0.00    -0.000 A 
ATOM     19  C   UNL     1      -8.985  18.163  67.868  0.00  0.00    +0.143 A 
ATOM     20  C   UNL     1      -6.222  20.048  69.253  0.00  0.00    +0.039 C 
ATOM     21  C   UNL     1      -4.952  20.672  68.810  0.00  0.00    +0.077 C 
ENDROOT
BRANCH  15  22
ATOM     22  C   UNL     1     -10.661  16.453  65.226  0.00  0.00    +0.253 C 
ATOM     23  O   UNL     1     -11.299  16.810  64.201  0.00  0.00    -0.281 OA
ENDBRANCH  15  22
TORSDOF 1
ENDMDL
MODEL 8
REMARK VINA RESULT:      -6.0      2.512      4.849
REMARK  Name = 
REMARK  1 active torsions:
REMARK  status: ('A' for Active; 'I' for Inactive)
REMARK    1  A    between atoms: C_10  and  C_11
REMARK                            x       y       z     vdW  Elec       q    Type
REMARK                         _______ _______ _______ _____ _____    ______ ____
ROOT
ATOM      1  C   UNL     1     -11.305  15.928  70.399  0.00  0.00    +0.090 C 
ATOM      2  N   UNL     1     -11.782  15.713  69.054  0.00  0.00    -0.271 NA
ATOM      3  C   UNL     1     -12.062  14.342  68.748  0.00  0.00    +0.077 C 
ATOM      4  C   UNL     1     -10.738  13.614  68.711  0.00  0.00    +0.039 C 
ATOM      5  C   UNL     1      -9.958  14.238  67.597  0.00  0.00    -0.039 C 
ATOM      6  C   UNL     1      -9.489  13.375  66.692  0.00  0.00    +0.026 C 
ATOM      7  C   UNL     1     -10.343  13.094  65.527  0.00  0.00    -0.002 A 
ATOM      8  C   UNL     1     -10.549  11.909  64.831  0.00  0.00    -0.020 A 
ATOM      9  C   UNL     1     -11.374  11.872  63.721  0.00  0.00    -0.004 A 
ATOM     10  C   UNL     1     -12.243  12.931  63.500  0.00  0.00    -0.000 A 
ATOM     11  C   UNL     1     -12.062  14.082  64.251  0.00  0.00    -0.000 A 
ATOM     12  C   UNL     1     -10.187  10.536  65.308  0.00  0.00    +0.051 C 
ATOM     13  C   UNL     1      -8.727  10.433  65.635  0.00  0.00    +0.112 C 
ATOM     14  N   UNL     1      -8.355  11.079  66.864  0.00  0.00    -0.308 N 
ATOM     15  C   UNL     1      -7.950  10.359  67.940  0.00  0.00    +0.123 A 
ATOM     16  C   UNL     1      -7.490  11.328  68.824  0.00  0.00    +0.121 A 
ATOM     17  N   UNL     1      -7.794  12.548  68.313  0.00  0.00    -0.225 NA
ATOM     18  C   UNL     1     -11.204  14.139  65.335  0.00  0.00    -0.000 A 
ATOM     19  C   UNL     1      -8.557  12.371  67.228  0.00  0.00    +0.143 A 
ATOM     20  C   UNL     1     -10.038  15.674  67.298  0.00  0.00    +0.039 C 
ATOM     21  C   UNL     1     -11.066  16.431  68.053  0.00  0.00    +0.077 C 
ENDROOT
BRANCH  15  22
ATOM     22  C   UNL     1      -8.297   8.980  68.296  0.00  0.00    +0.253 C 
ATOM     23  O   UNL     1      -9.462   8.632  68.626  0.00  0.00    -0.281 OA
ENDBRANCH  15  22
TORSDOF 1
ENDMDL
MODEL 9
REMARK VINA RESULT:      -6.0      2.362      3.888
REMARK  Name = 
REMARK  1 active torsions:
REMARK  status: ('A' for Active; 'I' for Inactive)
REMARK    1  A    between atoms: C_10  and  C_11
REMARK                            x       y       z     vdW  Elec       q    Type
REMARK                         _______ _______ _______ _____ _____    ______ ____
ROOT
ATOM      1  C   UNL     1      -9.910  16.524  66.707  0.00  0.00    +0.090 C 
ATOM      2  N   UNL     1     -10.293  15.630  67.773  0.00  0.00    -0.271 NA
ATOM      3  C   UNL     1      -9.415  14.511  67.938  0.00  0.00    +0.077 C 
ATOM      4  C   UNL     1      -9.595  13.621  66.728  0.00  0.00    +0.039 C 
ATOM      5  C   UNL     1     -11.020  13.164  66.764  0.00  0.00    -0.039 C 
ATOM      6  C   UNL     1     -11.183  11.840  66.702  0.00  0.00    +0.026 C 
ATOM      7  C   UNL     1     -11.236  11.110  67.978  0.00  0.00    -0.002 A 
ATOM      8  C   UNL     1     -10.738   9.857  68.316  0.00  0.00    -0.020 A 
ATOM      9  C   UNL     1     -10.938   9.331  69.579  0.00  0.00    -0.004 A 
ATOM     10  C   UNL     1     -11.346  10.180  70.599  0.00  0.00    -0.000 A 
ATOM     11  C   UNL     1     -11.777  11.449  70.247  0.00  0.00    -0.000 A 
ATOM     12  C   UNL     1      -9.729   9.072  67.534  0.00  0.00    +0.051 C 
ATOM     13  C   UNL     1     -10.188   8.835  66.125  0.00  0.00    +0.112 C 
ATOM     14  N   UNL     1     -10.106   9.995  65.279  0.00  0.00    -0.308 N 
ATOM     15  C   UNL     1      -9.217  10.056  64.257  0.00  0.00    +0.123 A 
ATOM     16  C   UNL     1      -9.589  11.207  63.572  0.00  0.00    +0.121 A 
ATOM     17  N   UNL     1     -10.542  11.844  64.298  0.00  0.00    -0.225 NA
ATOM     18  C   UNL     1     -11.623  11.964  68.972  0.00  0.00    -0.000 A 
ATOM     19  C   UNL     1     -10.665  11.216  65.474  0.00  0.00    +0.143 A 
ATOM     20  C   UNL     1     -12.107  14.036  67.228  0.00  0.00    +0.039 C 
ATOM     21  C   UNL     1     -11.685  15.329  67.819  0.00  0.00    +0.077 C 
ENDROOT
BRANCH  15  22
ATOM     22  C   UNL     1      -7.927   9.371  64.130  0.00  0.00    +0.253 C 
ATOM     23  O   UNL     1      -6.906   9.707  64.787  0.00  0.00    -0.281 OA
ENDBRANCH  15  22
TORSDOF 1
ENDMDL
