MODEL 1
REMARK VINA RESULT:      -8.8      0.000      0.000
REMARK  Name = 
REMARK  8 active torsions:
REMARK  status: ('A' for Active; 'I' for Inactive)
REMARK    1  A    between atoms: C_5  and  C_6
REMARK    2  A    between atoms: N_9  and  C_10
REMARK    3  A    between atoms: N_17  and  C_18
REMARK    4  A    between atoms: C_18  and  C_19
REMARK    5  A    between atoms: C_19  and  C_20
REMARK    6  A    between atoms: C_20  and  N_21
REMARK    7  A    between atoms: C_20  and  C_32
REMARK    8  A    between atoms: C_22  and  C_24
REMARK                            x       y       z     vdW  Elec       q    Type
REMARK                         _______ _______ _______ _____ _____    ______ ____
ROOT
ATOM      1  C   UNL     1     -11.368  16.271  68.593  0.00  0.00    +0.043 C 
ENDROOT
BRANCH   1   2
ATOM      2  C   UNL     1     -10.701  17.499  68.457  0.00  0.00    +0.074 C 
BRANCH   2   6
ATOM      3  C   UNL     1      -7.030  19.362  67.077  0.00  0.00    +0.090 C 
ATOM      4  C   UNL     1      -8.365  19.206  66.221  0.00  0.00    +0.039 C 
ATOM      5  C   UNL     1      -9.485  18.141  66.620  0.00  0.00    +0.059 C 
ATOM      6  N   UNL     1      -9.450  17.936  68.160  0.00  0.00    -0.275 NA
ATOM      7  C   UNL     1      -9.090  19.303  68.782  0.00  0.00    +0.059 C 
ATOM      8  C   UNL     1      -9.465  20.240  67.488  0.00  0.00    +0.017 C 
ATOM      9  C   UNL     1     -10.565  19.394  66.824  0.00  0.00    +0.017 C 
ATOM     10  C   UNL     1      -7.530  18.918  68.540  0.00  0.00    +0.039 C 
BRANCH   3  13
ATOM     11  C   UNL     1      -5.765  18.930  64.542  0.00  0.00    +0.074 C 
ATOM     12  C   UNL     1      -5.697  18.056  65.555  0.00  0.00    +0.143 A 
ATOM     13  N   UNL     1      -6.503  17.917  66.654  0.00  0.00    -0.304 N 
ATOM     14  C   UNL     1      -5.698  17.242  67.514  0.00  0.00    +0.142 A 
ATOM     15  N   UNL     1      -4.818  16.515  66.794  0.00  0.00    -0.134 NA
ATOM     16  N   UNL     1      -4.642  17.206  65.669  0.00  0.00    -0.134 NA
BRANCH  14  17
ATOM     17  C   UNL     1      -6.181  16.836  68.841  0.00  0.00    +0.059 C 
ATOM     18  C   UNL     1      -6.771  15.439  68.634  0.00  0.00    +0.008 C 
ATOM     19  C   UNL     1      -4.902  16.562  69.640  0.00  0.00    +0.008 C 
ENDBRANCH  14  17
ENDBRANCH   3  13
ENDBRANCH   2   6
ENDBRANCH   1   2
BRANCH   1  20
ATOM     20  C   UNL     1     -10.597  15.336  69.715  0.00  0.00    +0.119 C 
BRANCH  20  21
ATOM     21  C   UNL     1     -11.805  15.406  70.765  0.00  0.00    -0.003 A 
ATOM     22  C   UNL     1     -11.885  16.116  71.865  0.00  0.00    -0.003 A 
ATOM     23  C   UNL     1     -12.828  15.780  72.811  0.00  0.00    -0.000 A 
ATOM     24  C   UNL     1     -13.747  14.809  72.426  0.00  0.00    -0.000 A 
ATOM     25  C   UNL     1     -13.232  13.792  71.623  0.00  0.00    -0.000 A 
ATOM     26  C   UNL     1     -12.122  14.048  70.864  0.00  0.00    -0.003 A 
ENDBRANCH  20  21
BRANCH  20  27
ATOM     27  N   UNL     1     -10.967  13.907  69.144  0.00  0.00    -0.203 NA
ATOM     28  C   UNL     1     -10.442  13.578  67.912  0.00  0.00    +0.241 C 
ATOM     29  O   UNL     1      -9.348  13.058  68.343  0.00  0.00    -0.273 OA
BRANCH  28  30
ATOM     30  C   UNL     1     -10.646  13.257  66.581  0.00  0.00    +0.079 C 
ATOM     31  C   UNL     1     -12.049  13.791  66.262  0.00  0.00    +0.015 C 
ATOM     32  C   UNL     1     -12.042  14.201  64.782  0.00  0.00    +0.067 C 
ATOM     33  C   UNL     1     -12.097  12.854  64.067  0.00  0.00    +0.264 C 
ATOM     34  F   UNL     1     -12.286  13.144  62.757  0.00  0.00    -0.204 F 
ATOM     35  F   UNL     1     -13.158  12.148  64.588  0.00  0.00    -0.204 F 
ATOM     36  C   UNL     1     -10.768  12.212  64.375  0.00  0.00    +0.067 C 
ATOM     37  C   UNL     1     -10.517  12.035  65.855  0.00  0.00    +0.015 C 
ENDBRANCH  28  30
ENDBRANCH  20  27
ENDBRANCH   1  20
TORSDOF 8
ENDMDL
MODEL 2
REMARK VINA RESULT:      -8.7      0.748      1.130
REMARK  Name = 
REMARK  8 active torsions:
REMARK  status: ('A' for Active; 'I' for Inactive)
REMARK    1  A    between atoms: C_5  and  C_6
REMARK    2  A    between atoms: N_9  and  C_10
REMARK    3  A    between atoms: N_17  and  C_18
REMARK    4  A    between atoms: C_18  and  C_19
REMARK    5  A    between atoms: C_19  and  C_20
REMARK    6  A    between atoms: C_20  and  N_21
REMARK    7  A    between atoms: C_20  and  C_32
REMARK    8  A    between atoms: C_22  and  C_24
REMARK                            x       y       z     vdW  Elec       q    Type
REMARK                         _______ _______ _______ _____ _____    ______ ____
ROOT
ATOM      1  C   UNL     1     -11.585  16.233  68.627  0.00  0.00    +0.043 C 
ENDROOT
BRANCH   1   2
ATOM      2  C   UNL     1     -10.906  17.417  68.298  0.00  0.00    +0.074 C 
BRANCH   2   6
ATOM      3  C   UNL     1      -7.090  19.187  67.222  0.00  0.00    +0.090 C 
ATOM      4  C   UNL     1      -8.364  19.090  66.271  0.00  0.00    +0.039 C 
ATOM      5  C   UNL     1      -9.542  18.054  66.567  0.00  0.00    +0.059 C 
ATOM      6  N   UNL     1      -9.624  17.819  68.101  0.00  0.00    -0.275 NA
ATOM      7  C   UNL     1      -9.268  19.162  68.775  0.00  0.00    +0.059 C 
ATOM      8  C   UNL     1      -9.519  20.135  67.478  0.00  0.00    +0.017 C 
ATOM      9  C   UNL     1     -10.595  19.338  66.720  0.00  0.00    +0.017 C 
ATOM     10  C   UNL     1      -7.707  18.731  68.637  0.00  0.00    +0.039 C 
BRANCH   3  13
ATOM     11  C   UNL     1      -5.650  18.763  64.781  0.00  0.00    +0.074 C 
ATOM     12  C   UNL     1      -5.687  17.868  65.776  0.00  0.00    +0.143 A 
ATOM     13  N   UNL     1      -6.578  17.733  66.808  0.00  0.00    -0.304 N 
ATOM     14  C   UNL     1      -5.863  17.015  67.711  0.00  0.00    +0.142 A 
ATOM     15  N   UNL     1      -4.955  16.273  67.043  0.00  0.00    -0.134 NA
ATOM     16  N   UNL     1      -4.672  16.981  65.950  0.00  0.00    -0.134 NA
BRANCH  14  17
ATOM     17  C   UNL     1      -6.459  16.598  68.988  0.00  0.00    +0.059 C 
ATOM     18  C   UNL     1      -7.041  15.209  68.715  0.00  0.00    +0.008 C 
ATOM     19  C   UNL     1      -5.253  16.302  69.887  0.00  0.00    +0.008 C 
ENDBRANCH  14  17
ENDBRANCH   3  13
ENDBRANCH   2   6
ENDBRANCH   1   2
BRANCH   1  20
ATOM     20  C   UNL     1     -10.780  15.442  69.833  0.00  0.00    +0.119 C 
BRANCH  20  21
ATOM     21  C   UNL     1     -11.916  15.725  70.926  0.00  0.00    -0.003 A 
ATOM     22  C   UNL     1     -11.765  16.030  72.194  0.00  0.00    -0.003 A 
ATOM     23  C   UNL     1     -12.835  15.883  73.048  0.00  0.00    -0.000 A 
ATOM     24  C   UNL     1     -14.053  15.588  72.444  0.00  0.00    -0.000 A 
ATOM     25  C   UNL     1     -13.975  14.741  71.339  0.00  0.00    -0.000 A 
ATOM     26  C   UNL     1     -12.807  14.690  70.627  0.00  0.00    -0.003 A 
ENDBRANCH  20  21
BRANCH  20  27
ATOM     27  N   UNL     1     -11.239  13.963  69.508  0.00  0.00    -0.203 NA
ATOM     28  C   UNL     1     -10.948  13.487  68.246  0.00  0.00    +0.241 C 
ATOM     29  O   UNL     1      -9.789  13.004  68.525  0.00  0.00    -0.273 OA
BRANCH  28  30
ATOM     30  C   UNL     1     -11.391  13.019  67.021  0.00  0.00    +0.079 C 
ATOM     31  C   UNL     1     -10.124  12.522  66.314  0.00  0.00    +0.015 C 
ATOM     32  C   UNL     1     -10.548  11.350  65.416  0.00  0.00    +0.067 C 
ATOM     33  C   UNL     1     -11.244  12.059  64.256  0.00  0.00    +0.264 C 
ATOM     34  F   UNL     1     -11.478  11.098  63.330  0.00  0.00    -0.204 F 
ATOM     35  F   UNL     1     -10.385  13.024  63.781  0.00  0.00    -0.204 F 
ATOM     36  C   UNL     1     -12.490  12.646  64.871  0.00  0.00    +0.067 C 
ATOM     37  C   UNL     1     -12.205  13.603  66.005  0.00  0.00    +0.015 C 
ENDBRANCH  28  30
ENDBRANCH  20  27
ENDBRANCH   1  20
TORSDOF 8
ENDMDL
MODEL 3
REMARK VINA RESULT:      -8.7      2.571      5.134
REMARK  Name = 
REMARK  8 active torsions:
REMARK  status: ('A' for Active; 'I' for Inactive)
REMARK    1  A    between atoms: C_5  and  C_6
REMARK    2  A    between atoms: N_9  and  C_10
REMARK    3  A    between atoms: N_17  and  C_18
REMARK    4  A    between atoms: C_18  and  C_19
REMARK    5  A    between atoms: C_19  and  C_20
REMARK    6  A    between atoms: C_20  and  N_21
REMARK    7  A    between atoms: C_20  and  C_32
REMARK    8  A    between atoms: C_22  and  C_24
REMARK                            x       y       z     vdW  Elec       q    Type
REMARK                         _______ _______ _______ _____ _____    ______ ____
ROOT
ATOM      1  C   UNL     1     -10.408  15.486  65.612  0.00  0.00    +0.043 C 
ENDROOT
BRANCH   1   2
ATOM      2  C   UNL     1     -10.274  16.785  66.128  0.00  0.00    +0.074 C 
BRANCH   2   6
ATOM      3  C   UNL     1      -7.901  19.524  68.520  0.00  0.00    +0.090 C 
ATOM      4  C   UNL     1      -8.522  19.847  67.089  0.00  0.00    +0.039 C 
ATOM      5  C   UNL     1      -8.980  18.680  66.102  0.00  0.00    +0.059 C 
ATOM      6  N   UNL     1      -9.429  17.458  66.951  0.00  0.00    -0.275 NA
ATOM      7  C   UNL     1     -10.095  18.022  68.225  0.00  0.00    +0.059 C 
ATOM      8  C   UNL     1     -10.381  19.540  67.671  0.00  0.00    +0.017 C 
ATOM      9  C   UNL     1     -10.537  19.276  66.163  0.00  0.00    +0.017 C 
ATOM     10  C   UNL     1      -8.607  18.121  68.869  0.00  0.00    +0.039 C 
BRANCH   3  13
ATOM     11  C   UNL     1      -5.756  21.165  67.564  0.00  0.00    +0.074 C 
ATOM     12  C   UNL     1      -5.630  19.851  67.793  0.00  0.00    +0.143 A 
ATOM     13  N   UNL     1      -6.588  18.877  67.885  0.00  0.00    -0.304 N 
ATOM     14  C   UNL     1      -5.942  17.906  68.580  0.00  0.00    +0.142 A 
ATOM     15  N   UNL     1      -4.619  18.016  68.338  0.00  0.00    -0.134 NA
ATOM     16  N   UNL     1      -4.421  19.314  68.105  0.00  0.00    -0.134 NA
BRANCH  14  17
ATOM     17  C   UNL     1      -6.600  16.627  68.882  0.00  0.00    +0.059 C 
ATOM     18  C   UNL     1      -6.309  15.740  67.670  0.00  0.00    +0.008 C 
ATOM     19  C   UNL     1      -5.733  16.009  69.985  0.00  0.00    +0.008 C 
ENDBRANCH  14  17
ENDBRANCH   3  13
ENDBRANCH   2   6
ENDBRANCH   1   2
BRANCH   1  20
ATOM     20  C   UNL     1     -11.635  14.698  66.388  0.00  0.00    +0.119 C 
BRANCH  20  21
ATOM     21  C   UNL     1     -11.418  13.333  65.578  0.00  0.00    -0.003 A 
ATOM     22  C   UNL     1     -10.359  12.557  65.563  0.00  0.00    -0.003 A 
ATOM     23  C   UNL     1     -10.220  11.638  64.547  0.00  0.00    -0.000 A 
ATOM     24  C   UNL     1     -11.322  11.490  63.712  0.00  0.00    -0.000 A 
ATOM     25  C   UNL     1     -12.019  12.667  63.440  0.00  0.00    -0.000 A 
ATOM     26  C   UNL     1     -11.952  13.697  64.339  0.00  0.00    -0.003 A 
ENDBRANCH  20  21
BRANCH  20  27
ATOM     27  N   UNL     1     -10.853  14.238  67.685  0.00  0.00    -0.203 NA
ATOM     28  C   UNL     1     -11.565  14.228  68.866  0.00  0.00    +0.241 C 
ATOM     29  O   UNL     1     -12.003  13.022  68.773  0.00  0.00    -0.273 OA
BRANCH  28  30
ATOM     30  C   UNL     1     -11.747  14.718  70.148  0.00  0.00    +0.079 C 
ATOM     31  C   UNL     1     -13.063  14.088  70.621  0.00  0.00    +0.015 C 
ATOM     32  C   UNL     1     -12.945  13.903  72.142  0.00  0.00    +0.067 C 
ATOM     33  C   UNL     1     -13.125  15.327  72.661  0.00  0.00    +0.264 C 
ATOM     34  F   UNL     1     -13.222  15.213  74.008  0.00  0.00    -0.204 F 
ATOM     35  F   UNL     1     -14.282  15.829  72.110  0.00  0.00    -0.204 F 
ATOM     36  C   UNL     1     -11.894  16.057  72.186  0.00  0.00    +0.067 C 
ATOM     37  C   UNL     1     -11.729  16.040  70.684  0.00  0.00    +0.015 C 
ENDBRANCH  28  30
ENDBRANCH  20  27
ENDBRANCH   1  20
TORSDOF 8
ENDMDL
MODEL 4
REMARK VINA RESULT:      -8.3      3.328      6.897
REMARK  Name = 
REMARK  8 active torsions:
REMARK  status: ('A' for Active; 'I' for Inactive)
REMARK    1  A    between atoms: C_5  and  C_6
REMARK    2  A    between atoms: N_9  and  C_10
REMARK    3  A    between atoms: N_17  and  C_18
REMARK    4  A    between atoms: C_18  and  C_19
REMARK    5  A    between atoms: C_19  and  C_20
REMARK    6  A    between atoms: C_20  and  N_21
REMARK    7  A    between atoms: C_20  and  C_32
REMARK    8  A    between atoms: C_22  and  C_24
REMARK                            x       y       z     vdW  Elec       q    Type
REMARK                         _______ _______ _______ _____ _____    ______ ____
ROOT
ATOM      1  C   UNL     1     -10.443  16.527  65.921  0.00  0.00    +0.043 C 
ENDROOT
BRANCH   1   2
ATOM      2  C   UNL     1     -10.760  15.232  65.481  0.00  0.00    +0.074 C 
BRANCH   2   6
ATOM      3  C   UNL     1     -10.394  11.009  66.420  0.00  0.00    +0.090 C 
ATOM      4  C   UNL     1     -11.655  11.923  66.755  0.00  0.00    +0.039 C 
ATOM      5  C   UNL     1     -11.538  13.515  66.789  0.00  0.00    +0.059 C 
ATOM      6  N   UNL     1     -10.427  13.953  65.795  0.00  0.00    -0.275 NA
ATOM      7  C   UNL     1     -10.483  12.971  64.604  0.00  0.00    +0.059 C 
ATOM      8  C   UNL     1     -11.994  12.389  64.869  0.00  0.00    +0.017 C 
ATOM      9  C   UNL     1     -12.656  13.597  65.555  0.00  0.00    +0.017 C 
ATOM     10  C   UNL     1      -9.531  11.981  65.473  0.00  0.00    +0.039 C 
BRANCH   3  13
ATOM     11  C   UNL     1     -11.137   9.842  68.929  0.00  0.00    +0.074 C 
ATOM     12  C   UNL     1      -9.992  10.511  68.741  0.00  0.00    +0.143 A 
ATOM     13  N   UNL     1      -9.649  11.415  67.771  0.00  0.00    -0.304 N 
ATOM     14  C   UNL     1      -8.293  11.367  67.803  0.00  0.00    +0.142 A 
ATOM     15  N   UNL     1      -7.907  11.007  69.045  0.00  0.00    -0.134 NA
ATOM     16  N   UNL     1      -8.899  10.243  69.503  0.00  0.00    -0.134 NA
BRANCH  14  17
ATOM     17  C   UNL     1      -7.485  12.229  66.929  0.00  0.00    +0.059 C 
ATOM     18  C   UNL     1      -7.267  13.512  67.735  0.00  0.00    +0.008 C 
ATOM     19  C   UNL     1      -6.099  11.574  66.931  0.00  0.00    +0.008 C 
ENDBRANCH  14  17
ENDBRANCH   3  13
ENDBRANCH   2   6
ENDBRANCH   1   2
BRANCH   1  20
ATOM     20  C   UNL     1      -9.946  16.478  67.495  0.00  0.00    +0.119 C 
BRANCH  20  21
ATOM     21  C   UNL     1      -9.561  18.032  67.537  0.00  0.00    -0.003 A 
ATOM     22  C   UNL     1     -10.365  19.069  67.508  0.00  0.00    -0.003 A 
ATOM     23  C   UNL     1      -9.849  20.306  67.192  0.00  0.00    -0.000 A 
ATOM     24  C   UNL     1      -8.463  20.376  67.104  0.00  0.00    -0.000 A 
ATOM     25  C   UNL     1      -7.847  19.249  66.559  0.00  0.00    -0.000 A 
ATOM     26  C   UNL     1      -8.485  18.041  66.645  0.00  0.00    -0.003 A 
ENDBRANCH  20  21
BRANCH  20  27
ATOM     27  N   UNL     1     -11.351  16.643  68.204  0.00  0.00    -0.203 NA
ATOM     28  C   UNL     1     -11.548  15.924  69.364  0.00  0.00    +0.241 C 
ATOM     29  O   UNL     1     -11.098  16.814  70.177  0.00  0.00    -0.273 OA
BRANCH  28  30
ATOM     30  C   UNL     1     -12.240  14.941  70.050  0.00  0.00    +0.079 C 
ATOM     31  C   UNL     1     -12.868  15.669  71.245  0.00  0.00    +0.015 C 
ATOM     32  C   UNL     1     -14.188  14.949  71.559  0.00  0.00    +0.067 C 
ATOM     33  C   UNL     1     -13.711  13.670  72.243  0.00  0.00    +0.264 C 
ATOM     34  F   UNL     1     -14.829  13.072  72.719  0.00  0.00    -0.204 F 
ATOM     35  F   UNL     1     -12.858  14.034  73.261  0.00  0.00    -0.204 F 
ATOM     36  C   UNL     1     -13.012  12.900  71.150  0.00  0.00    +0.067 C 
ATOM     37  C   UNL     1     -11.857  13.653  70.531  0.00  0.00    +0.015 C 
ENDBRANCH  28  30
ENDBRANCH  20  27
ENDBRANCH   1  20
TORSDOF 8
ENDMDL
MODEL 5
REMARK VINA RESULT:      -8.2      1.700      3.296
REMARK  Name = 
REMARK  8 active torsions:
REMARK  status: ('A' for Active; 'I' for Inactive)
REMARK    1  A    between atoms: C_5  and  C_6
REMARK    2  A    between atoms: N_9  and  C_10
REMARK    3  A    between atoms: N_17  and  C_18
REMARK    4  A    between atoms: C_18  and  C_19
REMARK    5  A    between atoms: C_19  and  C_20
REMARK    6  A    between atoms: C_20  and  N_21
REMARK    7  A    between atoms: C_20  and  C_32
REMARK    8  A    between atoms: C_22  and  C_24
REMARK                            x       y       z     vdW  Elec       q    Type
REMARK                         _______ _______ _______ _____ _____    ______ ____
ROOT
ATOM      1  C   UNL     1     -10.953  15.488  69.593  0.00  0.00    +0.043 C 
ENDROOT
BRANCH   1   2
ATOM      2  C   UNL     1      -9.647  15.540  69.081  0.00  0.00    +0.074 C 
BRANCH   2   6
ATOM      3  C   UNL     1      -6.782  17.657  66.597  0.00  0.00    +0.090 C 
ATOM      4  C   UNL     1      -6.437  16.866  67.937  0.00  0.00    +0.039 C 
ATOM      5  C   UNL     1      -7.569  16.511  69.004  0.00  0.00    +0.059 C 
ATOM      6  N   UNL     1      -8.921  16.340  68.257  0.00  0.00    -0.275 NA
ATOM      7  C   UNL     1      -8.594  15.710  66.886  0.00  0.00    +0.059 C 
ATOM      8  C   UNL     1      -7.100  15.140  67.254  0.00  0.00    +0.017 C 
ATOM      9  C   UNL     1      -7.248  14.892  68.766  0.00  0.00    +0.017 C 
ATOM     10  C   UNL     1      -8.309  17.216  66.346  0.00  0.00    +0.039 C 
BRANCH   3  13
ATOM     11  C   UNL     1      -4.779  19.625  67.167  0.00  0.00    +0.074 C 
ATOM     12  C   UNL     1      -6.093  19.865  67.264  0.00  0.00    +0.143 A 
ATOM     13  N   UNL     1      -7.142  18.993  67.392  0.00  0.00    -0.304 N 
ATOM     14  C   UNL     1      -8.189  19.742  66.963  0.00  0.00    +0.142 A 
ATOM     15  N   UNL     1      -7.909  21.041  67.193  0.00  0.00    -0.134 NA
ATOM     16  N   UNL     1      -6.581  21.125  67.111  0.00  0.00    -0.134 NA
BRANCH  14  17
ATOM     17  C   UNL     1      -9.556  19.201  66.966  0.00  0.00    +0.059 C 
ATOM     18  C   UNL     1     -10.171  19.696  68.278  0.00  0.00    +0.008 C 
ATOM     19  C   UNL     1     -10.290  20.025  65.902  0.00  0.00    +0.008 C 
ENDBRANCH  14  17
ENDBRANCH   3  13
ENDBRANCH   2   6
ENDBRANCH   1   2
BRANCH   1  20
ATOM     20  C   UNL     1     -11.263  13.978  70.187  0.00  0.00    +0.119 C 
BRANCH  20  21
ATOM     21  C   UNL     1     -12.282  14.507  71.303  0.00  0.00    -0.003 A 
ATOM     22  C   UNL     1     -13.571  14.728  71.188  0.00  0.00    -0.003 A 
ATOM     23  C   UNL     1     -14.202  15.511  72.129  0.00  0.00    -0.000 A 
ATOM     24  C   UNL     1     -13.435  15.857  73.237  0.00  0.00    -0.000 A 
ATOM     25  C   UNL     1     -12.089  16.108  72.969  0.00  0.00    -0.000 A 
ATOM     26  C   UNL     1     -11.515  15.528  71.871  0.00  0.00    -0.003 A 
ENDBRANCH  20  21
BRANCH  20  27
ATOM     27  N   UNL     1     -12.376  13.530  69.156  0.00  0.00    -0.203 NA
ATOM     28  C   UNL     1     -11.962  12.750  68.097  0.00  0.00    +0.241 C 
ATOM     29  O   UNL     1     -12.118  11.610  68.673  0.00  0.00    -0.273 OA
BRANCH  28  30
ATOM     30  C   UNL     1     -11.796  12.590  66.732  0.00  0.00    +0.079 C 
ATOM     31  C   UNL     1     -10.283  12.703  66.508  0.00  0.00    +0.015 C 
ATOM     32  C   UNL     1      -9.943  11.805  65.309  0.00  0.00    +0.067 C 
ATOM     33  C   UNL     1     -10.453  12.627  64.128  0.00  0.00    +0.264 C 
ATOM     34  F   UNL     1     -10.016  11.982  63.020  0.00  0.00    -0.204 F 
ATOM     35  F   UNL     1      -9.908  13.888  64.229  0.00  0.00    -0.204 F 
ATOM     36  C   UNL     1     -11.952  12.630  64.294  0.00  0.00    +0.067 C 
ATOM     37  C   UNL     1     -12.408  13.221  65.608  0.00  0.00    +0.015 C 
ENDBRANCH  28  30
ENDBRANCH  20  27
ENDBRANCH   1  20
TORSDOF 8
ENDMDL
MODEL 6
REMARK VINA RESULT:      -8.0      2.783      5.852
REMARK  Name = 
REMARK  8 active torsions:
REMARK  status: ('A' for Active; 'I' for Inactive)
REMARK    1  A    between atoms: C_5  and  C_6
REMARK    2  A    between atoms: N_9  and  C_10
REMARK    3  A    between atoms: N_17  and  C_18
REMARK    4  A    between atoms: C_18  and  C_19
REMARK    5  A    between atoms: C_19  and  C_20
REMARK    6  A    between atoms: C_20  and  N_21
REMARK    7  A    between atoms: C_20  and  C_32
REMARK    8  A    between atoms: C_22  and  C_24
REMARK                            x       y       z     vdW  Elec       q    Type
REMARK                         _______ _______ _______ _____ _____    ______ ____
ROOT
ATOM      1  C   UNL     1     -10.677  15.259  66.115  0.00  0.00    +0.043 C 
ENDROOT
BRANCH   1   2
ATOM      2  C   UNL     1      -9.891  15.784  67.153  0.00  0.00    +0.074 C 
BRANCH   2   6
ATOM      3  C   UNL     1      -6.013  17.481  68.118  0.00  0.00    +0.090 C 
ATOM      4  C   UNL     1      -7.015  16.816  69.162  0.00  0.00    +0.039 C 
ATOM      5  C   UNL     1      -8.564  16.632  68.822  0.00  0.00    +0.059 C 
ATOM      6  N   UNL     1      -8.718  16.456  67.286  0.00  0.00    -0.275 NA
ATOM      7  C   UNL     1      -7.479  15.672  66.801  0.00  0.00    +0.059 C 
ATOM      8  C   UNL     1      -7.019  15.065  68.255  0.00  0.00    +0.017 C 
ATOM      9  C   UNL     1      -8.375  14.982  68.978  0.00  0.00    +0.017 C 
ATOM     10  C   UNL     1      -6.704  17.098  66.717  0.00  0.00    +0.039 C 
BRANCH   3  13
ATOM     11  C   UNL     1      -5.413  19.238  70.301  0.00  0.00    +0.074 C 
ATOM     12  C   UNL     1      -6.039  19.639  69.187  0.00  0.00    +0.143 A 
ATOM     13  N   UNL     1      -6.714  18.909  68.244  0.00  0.00    -0.304 N 
ATOM     14  C   UNL     1      -6.693  19.740  67.171  0.00  0.00    +0.142 A 
ATOM     15  N   UNL     1      -6.618  21.012  67.617  0.00  0.00    -0.134 NA
ATOM     16  N   UNL     1      -5.959  20.931  68.773  0.00  0.00    -0.134 NA
BRANCH  14  17
ATOM     17  C   UNL     1      -7.353  19.367  65.913  0.00  0.00    +0.059 C 
ATOM     18  C   UNL     1      -8.798  19.847  66.070  0.00  0.00    +0.008 C 
ATOM     19  C   UNL     1      -6.772  20.338  64.879  0.00  0.00    +0.008 C 
ENDBRANCH  14  17
ENDBRANCH   3  13
ENDBRANCH   2   6
ENDBRANCH   1   2
BRANCH   1  20
ATOM     20  C   UNL     1     -11.862  14.295  66.741  0.00  0.00    +0.119 C 
BRANCH  20  21
ATOM     21  C   UNL     1     -11.441  13.021  65.866  0.00  0.00    -0.003 A 
ATOM     22  C   UNL     1     -10.320  12.339  65.912  0.00  0.00    -0.003 A 
ATOM     23  C   UNL     1      -9.995  11.517  64.856  0.00  0.00    -0.000 A 
ATOM     24  C   UNL     1     -10.988  11.345  63.898  0.00  0.00    -0.000 A 
ATOM     25  C   UNL     1     -11.758  12.478  63.634  0.00  0.00    -0.000 A 
ATOM     26  C   UNL     1     -11.877  13.436  64.605  0.00  0.00    -0.003 A 
ENDBRANCH  20  21
BRANCH  20  27
ATOM     27  N   UNL     1     -11.129  13.828  68.063  0.00  0.00    -0.203 NA
ATOM     28  C   UNL     1     -11.810  14.016  69.248  0.00  0.00    +0.241 C 
ATOM     29  O   UNL     1     -12.422  12.885  69.257  0.00  0.00    -0.273 OA
BRANCH  28  30
ATOM     30  C   UNL     1     -11.891  14.626  70.488  0.00  0.00    +0.079 C 
ATOM     31  C   UNL     1     -13.196  14.096  71.097  0.00  0.00    +0.015 C 
ATOM     32  C   UNL     1     -12.986  14.044  72.618  0.00  0.00    +0.067 C 
ATOM     33  C   UNL     1     -13.082  15.516  73.013  0.00  0.00    +0.264 C 
ATOM     34  F   UNL     1     -13.096  15.528  74.368  0.00  0.00    -0.204 F 
ATOM     35  F   UNL     1     -14.254  16.014  72.489  0.00  0.00    -0.204 F 
ATOM     36  C   UNL     1     -11.859  16.149  72.399  0.00  0.00    +0.067 C 
ATOM     37  C   UNL     1     -11.792  15.990  70.897  0.00  0.00    +0.015 C 
ENDBRANCH  28  30
ENDBRANCH  20  27
ENDBRANCH   1  20
TORSDOF 8
ENDMDL
MODEL 7
REMARK VINA RESULT:      -7.8      4.648      8.909
REMARK  Name = 
REMARK  8 active torsions:
REMARK  status: ('A' for Active; 'I' for Inactive)
REMARK    1  A    between atoms: C_5  and  C_6
REMARK    2  A    between atoms: N_9  and  C_10
REMARK    3  A    between atoms: N_17  and  C_18
REMARK    4  A    between atoms: C_18  and  C_19
REMARK    5  A    between atoms: C_19  and  C_20
REMARK    6  A    between atoms: C_20  and  N_21
REMARK    7  A    between atoms: C_20  and  C_32
REMARK    8  A    between atoms: C_22  and  C_24
REMARK                            x       y       z     vdW  Elec       q    Type
REMARK                         _______ _______ _______ _____ _____    ______ ____
ROOT
ATOM      1  C   UNL     1     -11.024  12.999  68.265  0.00  0.00    +0.043 C 
ENDROOT
BRANCH   1   2
ATOM      2  C   UNL     1      -9.888  12.192  68.441  0.00  0.00    +0.074 C 
BRANCH   2   6
ATOM      3  C   UNL     1      -8.677   8.062  69.013  0.00  0.00    +0.090 C 
ATOM      4  C   UNL     1      -9.049   8.730  67.615  0.00  0.00    +0.039 C 
ATOM      5  C   UNL     1      -9.897  10.081  67.543  0.00  0.00    +0.059 C 
ATOM      6  N   UNL     1      -9.608  10.919  68.819  0.00  0.00    -0.275 NA
ATOM      7  C   UNL     1      -8.128  10.675  69.186  0.00  0.00    +0.059 C 
ATOM      8  C   UNL     1      -7.633  10.096  67.732  0.00  0.00    +0.017 C 
ATOM      9  C   UNL     1      -8.607  10.818  66.784  0.00  0.00    +0.017 C 
ATOM     10  C   UNL     1      -8.622   9.346  69.981  0.00  0.00    +0.039 C 
BRANCH   3  13
ATOM     11  C   UNL     1     -10.004   5.918  67.653  0.00  0.00    +0.074 C 
ATOM     12  C   UNL     1     -10.477   6.482  68.772  0.00  0.00    +0.143 A 
ATOM     13  N   UNL     1     -10.198   7.702  69.329  0.00  0.00    -0.304 N 
ATOM     14  C   UNL     1     -10.566   7.515  70.623  0.00  0.00    +0.142 A 
ATOM     15  N   UNL     1     -11.530   6.572  70.661  0.00  0.00    -0.134 NA
ATOM     16  N   UNL     1     -11.276   5.781  69.619  0.00  0.00    -0.134 NA
BRANCH  14  17
ATOM     17  C   UNL     1     -10.471   8.608  71.601  0.00  0.00    +0.059 C 
ATOM     18  C   UNL     1     -11.853   9.265  71.590  0.00  0.00    +0.008 C 
ATOM     19  C   UNL     1     -10.432   7.896  72.958  0.00  0.00    +0.008 C 
ENDBRANCH  14  17
ENDBRANCH   3  13
ENDBRANCH   2   6
ENDBRANCH   1   2
BRANCH   1  20
ATOM     20  C   UNL     1     -10.624  14.351  67.404  0.00  0.00    +0.119 C 
BRANCH  20  21
ATOM     21  C   UNL     1     -11.307  13.826  66.054  0.00  0.00    -0.003 A 
ATOM     22  C   UNL     1     -12.389  13.096  65.921  0.00  0.00    -0.003 A 
ATOM     23  C   UNL     1     -12.617  12.450  64.726  0.00  0.00    -0.000 A 
ATOM     24  C   UNL     1     -11.753  12.781  63.688  0.00  0.00    -0.000 A 
ATOM     25  C   UNL     1     -10.431  13.009  64.068  0.00  0.00    -0.000 A 
ATOM     26  C   UNL     1     -10.173  13.409  65.352  0.00  0.00    -0.003 A 
ENDBRANCH  20  21
BRANCH  20  27
ATOM     27  N   UNL     1     -11.825  15.285  67.837  0.00  0.00    -0.203 NA
ATOM     28  C   UNL     1     -11.862  15.673  69.160  0.00  0.00    +0.241 C 
ATOM     29  O   UNL     1     -11.156  16.741  69.027  0.00  0.00    -0.273 OA
BRANCH  28  30
ATOM     30  C   UNL     1     -12.507  15.662  70.384  0.00  0.00    +0.079 C 
ATOM     31  C   UNL     1     -11.379  15.539  71.417  0.00  0.00    +0.015 C 
ATOM     32  C   UNL     1     -11.848  16.282  72.677  0.00  0.00    +0.067 C 
ATOM     33  C   UNL     1     -12.865  15.311  73.272  0.00  0.00    +0.264 C 
ATOM     34  F   UNL     1     -13.182  15.816  74.488  0.00  0.00    -0.204 F 
ATOM     35  F   UNL     1     -12.257  14.081  73.376  0.00  0.00    -0.204 F 
ATOM     36  C   UNL     1     -14.005  15.312  72.283  0.00  0.00    +0.067 C 
ATOM     37  C   UNL     1     -13.592  14.886  70.893  0.00  0.00    +0.015 C 
ENDBRANCH  28  30
ENDBRANCH  20  27
ENDBRANCH   1  20
TORSDOF 8
ENDMDL
MODEL 8
REMARK VINA RESULT:      -7.7      4.085      7.879
REMARK  Name = 
REMARK  8 active torsions:
REMARK  status: ('A' for Active; 'I' for Inactive)
REMARK    1  A    between atoms: C_5  and  C_6
REMARK    2  A    between atoms: N_9  and  C_10
REMARK    3  A    between atoms: N_17  and  C_18
REMARK    4  A    between atoms: C_18  and  C_19
REMARK    5  A    between atoms: C_19  and  C_20
REMARK    6  A    between atoms: C_20  and  N_21
REMARK    7  A    between atoms: C_20  and  C_32
REMARK    8  A    between atoms: C_22  and  C_24
REMARK                            x       y       z     vdW  Elec       q    Type
REMARK                         _______ _______ _______ _____ _____    ______ ____
ROOT
ATOM      1  C   UNL     1     -10.489  14.126  69.153  0.00  0.00    +0.043 C 
ENDROOT
BRANCH   1   2
ATOM      2  C   UNL     1     -10.787  12.911  68.517  0.00  0.00    +0.074 C 
BRANCH   2   6
ATOM      3  C   UNL     1      -9.316   8.873  67.894  0.00  0.00    +0.090 C 
ATOM      4  C   UNL     1     -10.203   9.702  66.862  0.00  0.00    +0.039 C 
ATOM      5  C   UNL     1     -11.061  10.963  67.334  0.00  0.00    +0.059 C 
ATOM      6  N   UNL     1     -10.345  11.627  68.544  0.00  0.00    -0.275 NA
ATOM      7  C   UNL     1      -8.828  11.471  68.303  0.00  0.00    +0.059 C 
ATOM      8  C   UNL     1      -8.890  11.163  66.692  0.00  0.00    +0.017 C 
ATOM      9  C   UNL     1     -10.170  11.921  66.299  0.00  0.00    +0.017 C 
ATOM     10  C   UNL     1      -8.947  10.000  68.981  0.00  0.00    +0.039 C 
BRANCH   3  13
ATOM     11  C   UNL     1     -10.756   6.580  66.956  0.00  0.00    +0.074 C 
ATOM     12  C   UNL     1     -10.900   7.084  68.188  0.00  0.00    +0.143 A 
ATOM     13  N   UNL     1     -10.598   8.329  68.672  0.00  0.00    -0.304 N 
ATOM     14  C   UNL     1     -10.499   8.100  70.006  0.00  0.00    +0.142 A 
ATOM     15  N   UNL     1     -11.281   7.046  70.318  0.00  0.00    -0.134 NA
ATOM     16  N   UNL     1     -11.291   6.291  69.220  0.00  0.00    -0.134 NA
BRANCH  14  17
ATOM     17  C   UNL     1     -10.218   9.197  70.943  0.00  0.00    +0.059 C 
ATOM     18  C   UNL     1     -11.595   9.731  71.347  0.00  0.00    +0.008 C 
ATOM     19  C   UNL     1      -9.728   8.493  72.213  0.00  0.00    +0.008 C 
ENDBRANCH  14  17
ENDBRANCH   3  13
ENDBRANCH   2   6
ENDBRANCH   1   2
BRANCH   1  20
ATOM     20  C   UNL     1     -11.845  15.066  69.229  0.00  0.00    +0.119 C 
BRANCH  20  21
ATOM     21  C   UNL     1     -12.150  14.695  70.757  0.00  0.00    -0.003 A 
ATOM     22  C   UNL     1     -13.046  13.859  71.227  0.00  0.00    -0.003 A 
ATOM     23  C   UNL     1     -13.403  13.939  72.555  0.00  0.00    -0.000 A 
ATOM     24  C   UNL     1     -12.635  14.798  73.334  0.00  0.00    -0.000 A 
ATOM     25  C   UNL     1     -12.222  15.967  72.694  0.00  0.00    -0.000 A 
ATOM     26  C   UNL     1     -12.112  15.969  71.330  0.00  0.00    -0.003 A 
ENDBRANCH  20  21
BRANCH  20  27
ATOM     27  N   UNL     1     -11.164  16.460  69.538  0.00  0.00    -0.203 NA
ATOM     28  C   UNL     1     -10.331  16.972  68.564  0.00  0.00    +0.241 C 
ATOM     29  O   UNL     1     -11.232  17.622  67.916  0.00  0.00    -0.273 OA
BRANCH  28  30
ATOM     30  C   UNL     1      -9.064  17.368  68.172  0.00  0.00    +0.079 C 
ATOM     31  C   UNL     1      -9.036  18.882  68.422  0.00  0.00    +0.015 C 
ATOM     32  C   UNL     1      -7.587  19.244  68.783  0.00  0.00    +0.067 C 
ATOM     33  C   UNL     1      -6.885  19.181  67.429  0.00  0.00    +0.264 C 
ATOM     34  F   UNL     1      -5.641  19.675  67.640  0.00  0.00    -0.204 F 
ATOM     35  F   UNL     1      -7.600  19.964  66.551  0.00  0.00    -0.204 F 
ATOM     36  C   UNL     1      -6.918  17.719  67.058  0.00  0.00    +0.067 C 
ATOM     37  C   UNL     1      -8.317  17.153  66.975  0.00  0.00    +0.015 C 
ENDBRANCH  28  30
ENDBRANCH  20  27
ENDBRANCH   1  20
TORSDOF 8
ENDMDL
MODEL 9
REMARK VINA RESULT:      -7.6      3.534      7.369
REMARK  Name = 
REMARK  8 active torsions:
REMARK  status: ('A' for Active; 'I' for Inactive)
REMARK    1  A    between atoms: C_5  and  C_6
REMARK    2  A    between atoms: N_9  and  C_10
REMARK    3  A    between atoms: N_17  and  C_18
REMARK    4  A    between atoms: C_18  and  C_19
REMARK    5  A    between atoms: C_19  and  C_20
REMARK    6  A    between atoms: C_20  and  N_21
REMARK    7  A    between atoms: C_20  and  C_32
REMARK    8  A    between atoms: C_22  and  C_24
REMARK                            x       y       z     vdW  Elec       q    Type
REMARK                         _______ _______ _______ _____ _____    ______ ____
ROOT
ATOM      1  C   UNL     1      -9.579  15.947  65.755  0.00  0.00    +0.043 C 
ENDROOT
BRANCH   1   2
ATOM      2  C   UNL     1     -10.390  14.823  65.534  0.00  0.00    +0.074 C 
BRANCH   2   6
ATOM      3  C   UNL     1     -10.453  10.667  64.276  0.00  0.00    +0.090 C 
ATOM      4  C   UNL     1     -10.619  11.181  65.775  0.00  0.00    +0.039 C 
ATOM      5  C   UNL     1     -10.144  12.643  66.207  0.00  0.00    +0.059 C 
ATOM      6  N   UNL     1     -10.268  13.589  64.980  0.00  0.00    -0.275 NA
ATOM      7  C   UNL     1     -11.507  13.124  64.184  0.00  0.00    +0.059 C 
ATOM      8  C   UNL     1     -12.224  12.254  65.377  0.00  0.00    +0.017 C 
ATOM      9  C   UNL     1     -11.719  13.000  66.625  0.00  0.00    +0.017 C 
ATOM     10  C   UNL     1     -10.539  12.045  63.451  0.00  0.00    +0.039 C 
BRANCH   3  13
ATOM     11  C   UNL     1      -9.121   9.347  66.443  0.00  0.00    +0.074 C 
ATOM     12  C   UNL     1      -8.498   9.725  65.319  0.00  0.00    +0.143 A 
ATOM     13  N   UNL     1      -8.861  10.653  64.380  0.00  0.00    -0.304 N 
ATOM     14  C   UNL     1      -8.143  10.260  63.297  0.00  0.00    +0.142 A 
ATOM     15  N   UNL     1      -7.034   9.623  63.728  0.00  0.00    -0.134 NA
ATOM     16  N   UNL     1      -7.385   9.073  64.890  0.00  0.00    -0.134 NA
BRANCH  14  17
ATOM     17  C   UNL     1      -8.199  11.015  62.038  0.00  0.00    +0.059 C 
ATOM     18  C   UNL     1      -6.735  11.219  61.637  0.00  0.00    +0.008 C 
ATOM     19  C   UNL     1      -8.705   9.998  61.009  0.00  0.00    +0.008 C 
ENDBRANCH  14  17
ENDBRANCH   3  13
ENDBRANCH   2   6
ENDBRANCH   1   2
BRANCH   1  20
ATOM     20  C   UNL     1      -9.407  16.204  67.377  0.00  0.00    +0.119 C 
BRANCH  20  21
ATOM     21  C   UNL     1      -9.165  17.779  67.213  0.00  0.00    -0.003 A 
ATOM     22  C   UNL     1      -8.687  18.624  68.097  0.00  0.00    -0.003 A 
ATOM     23  C   UNL     1      -8.887  19.973  67.907  0.00  0.00    -0.000 A 
ATOM     24  C   UNL     1      -9.433  20.334  66.680  0.00  0.00    -0.000 A 
ATOM     25  C   UNL     1     -10.388  19.452  66.175  0.00  0.00    -0.000 A 
ATOM     26  C   UNL     1     -10.350  18.142  66.568  0.00  0.00    -0.003 A 
ENDBRANCH  20  21
BRANCH  20  27
ATOM     27  N   UNL     1     -10.934  16.319  67.774  0.00  0.00    -0.203 NA
ATOM     28  C   UNL     1     -11.291  15.831  69.014  0.00  0.00    +0.241 C 
ATOM     29  O   UNL     1     -11.098  16.920  69.670  0.00  0.00    -0.273 OA
BRANCH  28  30
ATOM     30  C   UNL     1     -12.010  14.923  69.771  0.00  0.00    +0.079 C 
ATOM     31  C   UNL     1     -12.560  15.746  70.944  0.00  0.00    +0.015 C 
ATOM     32  C   UNL     1     -13.905  15.115  71.336  0.00  0.00    +0.067 C 
ATOM     33  C   UNL     1     -13.472  13.850  72.073  0.00  0.00    +0.264 C 
ATOM     34  F   UNL     1     -14.604  13.339  72.614  0.00  0.00    -0.204 F 
ATOM     35  F   UNL     1     -12.568  14.220  73.044  0.00  0.00    -0.204 F 
ATOM     36  C   UNL     1     -12.851  12.988  71.003  0.00  0.00    +0.067 C 
ATOM     37  C   UNL     1     -11.679  13.644  70.310  0.00  0.00    +0.015 C 
ENDBRANCH  28  30
ENDBRANCH  20  27
ENDBRANCH   1  20
TORSDOF 8
ENDMDL
