MODEL 1
REMARK VINA RESULT:      -9.6      0.000      0.000
REMARK  Name = 
REMARK  6 active torsions:
REMARK  status: ('A' for Active; 'I' for Inactive)
REMARK    1  A    between atoms: C_2  and  C_4
REMARK    2  A    between atoms: C_4  and  O_6
REMARK    3  A    between atoms: O_6  and  C_7
REMARK    4  A    between atoms: C_7  and  C_8
REMARK    5  A    between atoms: C_8  and  C_10
REMARK    6  A    between atoms: C_12  and  C_13
REMARK                            x       y       z     vdW  Elec       q    Type
REMARK                         _______ _______ _______ _____ _____    ______ ____
ROOT
ATOM      1  C   UNL     1     -10.602  15.569  67.864  0.00  0.00    +0.174 C 
ATOM      2  C   UNL     1      -9.709  16.570  67.485  0.00  0.00    +0.034 C 
ATOM      3  C   UNL     1      -8.805  16.825  68.803  0.00  0.00    +0.005 C 
ATOM      4  C   UNL     1      -7.576  17.408  67.813  0.00  0.00    +0.004 C 
ATOM      5  C   UNL     1      -8.119  18.989  67.932  0.00  0.00    +0.038 C 
ATOM      6  C   UNL     1      -9.203  18.956  66.605  0.00  0.00    +0.153 C 
ATOM      7  O   UNL     1      -8.379  18.039  65.726  0.00  0.00    -0.223 OA
ATOM      8  C   UNL     1      -6.939  19.638  67.090  0.00  0.00    +0.036 C 
ATOM      9  C   UNL     1      -5.805  18.725  66.900  0.00  0.00    -0.038 C 
ATOM     10  C   UNL     1      -4.930  19.280  66.050  0.00  0.00    +0.034 C 
ATOM     11  C   UNL     1      -4.807  20.750  65.960  0.00  0.00    +0.195 C 
ATOM     12  C   UNL     1      -5.365  21.369  67.177  0.00  0.00    +0.038 C 
ATOM     13  O   UNL     1      -4.074  21.336  65.147  0.00  0.00    -0.287 OA
ATOM     14  C   UNL     1      -5.317  17.991  68.120  0.00  0.00    +0.022 C 
ATOM     15  C   UNL     1      -7.398  20.339  65.869  0.00  0.00    +0.009 C 
ATOM     16  C   UNL     1      -6.311  20.741  67.895  0.00  0.00    -0.020 C 
ATOM     17  C   UNL     1      -6.516  17.636  68.996  0.00  0.00    +0.004 C 
ATOM     18  C   UNL     1      -8.326  15.297  68.741  0.00  0.00    +0.033 C 
ATOM     19  C   UNL     1      -8.786  15.848  66.493  0.00  0.00    +0.003 C 
ATOM     20  C   UNL     1     -10.220  17.823  67.178  0.00  0.00    +0.036 C 
ATOM     21  C   UNL     1      -9.787  14.530  68.827  0.00  0.00    +0.149 C 
ATOM     22  O   UNL     1     -10.153  15.155  70.149  0.00  0.00    -0.330 OA
ATOM     23  C   UNL     1     -11.074  16.291  69.750  0.00  0.00    +0.235 C 
ATOM     24  O   UNL     1     -11.703  15.538  68.582  0.00  0.00    -0.326 OA
ENDROOT
BRANCH  23  25
ATOM     25  C   UNL     1     -12.291  15.793  70.769  0.00  0.00    +0.057 C 
ATOM     26  C   UNL     1     -11.902  16.272  72.113  0.00  0.00    +0.005 C 
ATOM     27  C   UNL     1     -12.664  15.608  73.175  0.00  0.00    +0.000 C 
ATOM     28  C   UNL     1     -13.528  14.473  72.866  0.00  0.00    +0.000 C 
ATOM     29  C   UNL     1     -13.423  13.820  71.550  0.00  0.00    +0.000 C 
ATOM     30  C   UNL     1     -12.405  14.325  70.609  0.00  0.00    +0.005 C 
ENDBRANCH  23  25
BRANCH   1  31
ATOM     31  C   UNL     1     -11.026  14.762  66.655  0.00  0.00    +0.221 C 
ATOM     32  O   UNL     1     -11.304  15.367  65.632  0.00  0.00    -0.290 OA
BRANCH  31  33
ATOM     33  C   UNL     1     -10.981  13.352  66.701  0.00  0.00    +0.275 C 
BRANCH  33  34
ATOM     34  O   UNL     1     -12.016  12.528  66.398  0.00  0.00    -0.440 OA
BRANCH  34  35
ATOM     35  C   UNL     1     -12.080  12.214  65.032  0.00  0.00    +0.317 C 
ATOM     36  O   UNL     1     -13.170  12.206  64.389  0.00  0.00    -0.250 OA
BRANCH  35  38
ATOM     37  C   UNL     1     -10.867  12.091  63.279  0.00  0.00    +0.012 C 
ATOM     38  C   UNL     1     -10.866  11.826  64.290  0.00  0.00    +0.099 C 
ATOM     39  C   UNL     1     -10.401  10.496  64.827  0.00  0.00    +0.012 C 
ENDBRANCH  35  38
ENDBRANCH  34  35
ENDBRANCH  33  34
ENDBRANCH  31  33
ENDBRANCH   1  31
TORSDOF 6
ENDMDL
MODEL 2
REMARK VINA RESULT:      -9.3      1.052      1.447
REMARK  Name = 
REMARK  6 active torsions:
REMARK  status: ('A' for Active; 'I' for Inactive)
REMARK    1  A    between atoms: C_2  and  C_4
REMARK    2  A    between atoms: C_4  and  O_6
REMARK    3  A    between atoms: O_6  and  C_7
REMARK    4  A    between atoms: C_7  and  C_8
REMARK    5  A    between atoms: C_8  and  C_10
REMARK    6  A    between atoms: C_12  and  C_13
REMARK                            x       y       z     vdW  Elec       q    Type
REMARK                         _______ _______ _______ _____ _____    ______ ____
ROOT
ATOM      1  C   UNL     1     -10.586  15.388  67.793  0.00  0.00    +0.174 C 
ATOM      2  C   UNL     1      -9.705  16.400  67.414  0.00  0.00    +0.034 C 
ATOM      3  C   UNL     1      -8.816  16.679  68.738  0.00  0.00    +0.005 C 
ATOM      4  C   UNL     1      -7.588  17.273  67.754  0.00  0.00    +0.004 C 
ATOM      5  C   UNL     1      -8.156  18.846  67.856  0.00  0.00    +0.038 C 
ATOM      6  C   UNL     1      -9.227  18.787  66.520  0.00  0.00    +0.153 C 
ATOM      7  O   UNL     1      -8.382  17.876  65.655  0.00  0.00    -0.223 OA
ATOM      8  C   UNL     1      -6.979  19.506  67.020  0.00  0.00    +0.036 C 
ATOM      9  C   UNL     1      -5.829  18.610  66.846  0.00  0.00    -0.038 C 
ATOM     10  C   UNL     1      -4.955  19.171  65.999  0.00  0.00    +0.034 C 
ATOM     11  C   UNL     1      -4.854  20.642  65.899  0.00  0.00    +0.195 C 
ATOM     12  C   UNL     1      -5.432  21.262  67.106  0.00  0.00    +0.038 C 
ATOM     13  O   UNL     1      -4.123  21.234  65.088  0.00  0.00    -0.287 OA
ATOM     14  C   UNL     1      -5.341  17.892  68.076  0.00  0.00    +0.022 C 
ATOM     15  C   UNL     1      -7.438  20.191  65.789  0.00  0.00    +0.009 C 
ATOM     16  C   UNL     1      -6.374  20.625  67.821  0.00  0.00    -0.020 C 
ATOM     17  C   UNL     1      -6.541  17.526  68.945  0.00  0.00    +0.004 C 
ATOM     18  C   UNL     1      -8.314  15.157  68.691  0.00  0.00    +0.033 C 
ATOM     19  C   UNL     1      -8.763  15.684  66.435  0.00  0.00    +0.003 C 
ATOM     20  C   UNL     1     -10.232  17.642  67.093  0.00  0.00    +0.036 C 
ATOM     21  C   UNL     1      -9.763  14.369  68.772  0.00  0.00    +0.149 C 
ATOM     22  O   UNL     1     -10.150  14.998  70.085  0.00  0.00    -0.330 OA
ATOM     23  C   UNL     1     -11.085  16.117  69.670  0.00  0.00    +0.235 C 
ATOM     24  O   UNL     1     -11.692  15.346  68.502  0.00  0.00    -0.326 OA
ENDROOT
BRANCH  23  25
ATOM     25  C   UNL     1     -12.303  15.608  70.682  0.00  0.00    +0.057 C 
ATOM     26  C   UNL     1     -11.980  16.179  72.008  0.00  0.00    +0.005 C 
ATOM     27  C   UNL     1     -12.736  15.531  73.084  0.00  0.00    +0.000 C 
ATOM     28  C   UNL     1     -13.528  14.336  72.815  0.00  0.00    +0.000 C 
ATOM     29  C   UNL     1     -13.351  13.621  71.540  0.00  0.00    +0.000 C 
ATOM     30  C   UNL     1     -12.334  14.130  70.600  0.00  0.00    +0.005 C 
ENDBRANCH  23  25
BRANCH   1  31
ATOM     31  C   UNL     1     -10.987  14.565  66.587  0.00  0.00    +0.221 C 
ATOM     32  O   UNL     1     -11.353  15.159  65.585  0.00  0.00    -0.290 OA
BRANCH  31  33
ATOM     33  C   UNL     1     -10.823  13.164  66.606  0.00  0.00    +0.275 C 
BRANCH  33  34
ATOM     34  O   UNL     1     -11.826  12.262  66.752  0.00  0.00    -0.440 OA
BRANCH  34  35
ATOM     35  C   UNL     1     -11.546  11.288  67.722  0.00  0.00    +0.317 C 
ATOM     36  O   UNL     1     -12.292  11.097  68.727  0.00  0.00    -0.250 OA
BRANCH  35  38
ATOM     37  C   UNL     1     -10.390   9.650  66.985  0.00  0.00    +0.012 C 
ATOM     38  C   UNL     1     -10.324  10.467  67.634  0.00  0.00    +0.099 C 
ATOM     39  C   UNL     1      -9.696  10.424  69.004  0.00  0.00    +0.012 C 
ENDBRANCH  35  38
ENDBRANCH  34  35
ENDBRANCH  33  34
ENDBRANCH  31  33
ENDBRANCH   1  31
TORSDOF 6
ENDMDL
MODEL 3
REMARK VINA RESULT:      -9.0      2.426      3.604
REMARK  Name = 
REMARK  6 active torsions:
REMARK  status: ('A' for Active; 'I' for Inactive)
REMARK    1  A    between atoms: C_2  and  C_4
REMARK    2  A    between atoms: C_4  and  O_6
REMARK    3  A    between atoms: O_6  and  C_7
REMARK    4  A    between atoms: C_7  and  C_8
REMARK    5  A    between atoms: C_8  and  C_10
REMARK    6  A    between atoms: C_12  and  C_13
REMARK                            x       y       z     vdW  Elec       q    Type
REMARK                         _______ _______ _______ _____ _____    ______ ____
ROOT
ATOM      1  C   UNL     1     -11.137  12.469  66.683  0.00  0.00    +0.174 C 
ATOM      2  C   UNL     1     -10.589  13.750  66.648  0.00  0.00    +0.034 C 
ATOM      3  C   UNL     1      -9.437  13.729  67.785  0.00  0.00    +0.005 C 
ATOM      4  C   UNL     1      -8.652  14.976  66.972  0.00  0.00    +0.004 C 
ATOM      5  C   UNL     1      -9.443  16.159  67.856  0.00  0.00    +0.038 C 
ATOM      6  C   UNL     1     -10.811  16.327  66.837  0.00  0.00    +0.153 C 
ATOM      7  O   UNL     1     -10.085  16.098  65.528  0.00  0.00    -0.223 OA
ATOM      8  C   UNL     1      -8.678  17.392  67.212  0.00  0.00    +0.036 C 
ATOM      9  C   UNL     1      -7.478  16.993  66.465  0.00  0.00    -0.038 C 
ATOM     10  C   UNL     1      -6.985  18.059  65.819  0.00  0.00    +0.034 C 
ATOM     11  C   UNL     1      -7.181  19.418  66.366  0.00  0.00    +0.195 C 
ATOM     12  C   UNL     1      -7.508  19.333  67.802  0.00  0.00    +0.038 C 
ATOM     13  O   UNL     1      -6.818  20.456  65.789  0.00  0.00    -0.287 OA
ATOM     14  C   UNL     1      -6.552  16.022  67.146  0.00  0.00    +0.022 C 
ATOM     15  C   UNL     1      -9.571  18.344  66.510  0.00  0.00    +0.009 C 
ATOM     16  C   UNL     1      -8.088  18.233  68.309  0.00  0.00    -0.020 C 
ATOM     17  C   UNL     1      -7.383  15.028  67.953  0.00  0.00    +0.004 C 
ATOM     18  C   UNL     1      -8.702  12.551  66.984  0.00  0.00    +0.033 C 
ATOM     19  C   UNL     1      -9.838  13.764  65.308  0.00  0.00    +0.003 C 
ATOM     20  C   UNL     1     -11.398  14.819  67.005  0.00  0.00    +0.036 C 
ATOM     21  C   UNL     1      -9.909  11.423  66.952  0.00  0.00    +0.149 C 
ATOM     22  O   UNL     1     -10.028  11.358  68.453  0.00  0.00    -0.330 OA
ATOM     23  C   UNL     1     -11.225  12.241  68.743  0.00  0.00    +0.235 C 
ATOM     24  O   UNL     1     -11.981  11.847  67.477  0.00  0.00    -0.326 OA
ENDROOT
BRANCH  23  25
ATOM     25  C   UNL     1     -12.008  11.061  69.616  0.00  0.00    +0.057 C 
ATOM     26  C   UNL     1     -12.679  11.771  70.728  0.00  0.00    +0.005 C 
ATOM     27  C   UNL     1     -13.098  10.854  71.791  0.00  0.00    +0.000 C 
ATOM     28  C   UNL     1     -12.677   9.457  71.772  0.00  0.00    +0.000 C 
ATOM     29  C   UNL     1     -11.611   9.035  70.848  0.00  0.00    +0.000 C 
ATOM     30  C   UNL     1     -10.981  10.068  70.004  0.00  0.00    +0.005 C 
ENDBRANCH  23  25
BRANCH   1  31
ATOM     31  C   UNL     1     -11.697  12.102  65.326  0.00  0.00    +0.221 C 
ATOM     32  O   UNL     1     -12.642  12.750  64.903  0.00  0.00    -0.290 OA
BRANCH  31  33
ATOM     33  C   UNL     1     -11.059  11.116  64.544  0.00  0.00    +0.275 C 
BRANCH  33  34
ATOM     34  O   UNL     1     -10.609  11.294  63.276  0.00  0.00    -0.440 OA
BRANCH  34  35
ATOM     35  C   UNL     1      -9.370  10.676  63.046  0.00  0.00    +0.317 C 
ATOM     36  O   UNL     1      -8.581  10.369  63.987  0.00  0.00    -0.250 OA
BRANCH  35  38
ATOM     37  C   UNL     1      -9.171   9.456  61.305  0.00  0.00    +0.012 C 
ATOM     38  C   UNL     1      -8.910  10.399  61.673  0.00  0.00    +0.099 C 
ATOM     39  C   UNL     1      -7.556  11.041  61.500  0.00  0.00    +0.012 C 
ENDBRANCH  35  38
ENDBRANCH  34  35
ENDBRANCH  33  34
ENDBRANCH  31  33
ENDBRANCH   1  31
TORSDOF 6
ENDMDL
MODEL 4
REMARK VINA RESULT:      -8.9      1.714      5.175
REMARK  Name = 
REMARK  6 active torsions:
REMARK  status: ('A' for Active; 'I' for Inactive)
REMARK    1  A    between atoms: C_2  and  C_4
REMARK    2  A    between atoms: C_4  and  O_6
REMARK    3  A    between atoms: O_6  and  C_7
REMARK    4  A    between atoms: C_7  and  C_8
REMARK    5  A    between atoms: C_8  and  C_10
REMARK    6  A    between atoms: C_12  and  C_13
REMARK                            x       y       z     vdW  Elec       q    Type
REMARK                         _______ _______ _______ _____ _____    ______ ____
ROOT
ATOM      1  C   UNL     1     -10.070  16.099  67.602  0.00  0.00    +0.174 C 
ATOM      2  C   UNL     1      -8.891  16.769  67.925  0.00  0.00    +0.034 C 
ATOM      3  C   UNL     1      -8.385  17.398  66.522  0.00  0.00    +0.005 C 
ATOM      4  C   UNL     1      -7.546  18.574  67.384  0.00  0.00    +0.004 C 
ATOM      5  C   UNL     1      -6.144  17.657  67.429  0.00  0.00    +0.038 C 
ATOM      6  C   UNL     1      -6.479  16.804  68.877  0.00  0.00    +0.153 C 
ATOM      7  O   UNL     1      -7.190  17.935  69.589  0.00  0.00    -0.223 OA
ATOM      8  C   UNL     1      -5.249  18.750  68.154  0.00  0.00    +0.036 C 
ATOM      9  C   UNL     1      -5.860  20.086  68.146  0.00  0.00    -0.038 C 
ATOM     10  C   UNL     1      -5.132  20.909  68.912  0.00  0.00    +0.034 C 
ATOM     11  C   UNL     1      -3.679  20.687  69.073  0.00  0.00    +0.195 C 
ATOM     12  C   UNL     1      -3.183  19.836  67.975  0.00  0.00    +0.038 C 
ATOM     13  O   UNL     1      -2.954  21.361  69.822  0.00  0.00    -0.287 OA
ATOM     14  C   UNL     1      -6.418  20.564  66.832  0.00  0.00    +0.022 C 
ATOM     15  C   UNL     1      -4.717  18.307  69.463  0.00  0.00    +0.009 C 
ATOM     16  C   UNL     1      -4.003  18.981  67.345  0.00  0.00    -0.020 C 
ATOM     17  C   UNL     1      -7.032  19.378  66.093  0.00  0.00    +0.004 C 
ATOM     18  C   UNL     1      -9.750  18.233  66.432  0.00  0.00    +0.033 C 
ATOM     19  C   UNL     1      -9.392  17.965  68.749  0.00  0.00    +0.003 C 
ATOM     20  C   UNL     1      -7.811  16.020  68.369  0.00  0.00    +0.036 C 
ATOM     21  C   UNL     1     -10.850  17.001  66.483  0.00  0.00    +0.149 C 
ATOM     22  O   UNL     1     -10.297  16.320  65.258  0.00  0.00    -0.330 OA
ATOM     23  C   UNL     1      -9.434  15.216  65.836  0.00  0.00    +0.235 C 
ATOM     24  O   UNL     1     -10.350  14.951  67.026  0.00  0.00    -0.326 OA
ENDROOT
BRANCH  23  25
ATOM     25  C   UNL     1     -10.187  14.027  64.950  0.00  0.00    +0.057 C 
ATOM     26  C   UNL     1     -11.514  14.578  64.595  0.00  0.00    +0.005 C 
ATOM     27  C   UNL     1     -12.438  13.536  64.141  0.00  0.00    +0.000 C 
ATOM     28  C   UNL     1     -12.078  12.126  64.257  0.00  0.00    +0.000 C 
ATOM     29  C   UNL     1     -10.919  11.740  65.079  0.00  0.00    +0.000 C 
ATOM     30  C   UNL     1     -10.192  12.809  65.791  0.00  0.00    +0.005 C 
ENDBRANCH  23  25
BRANCH   1  31
ATOM     31  C   UNL     1     -10.990  16.050  68.803  0.00  0.00    +0.221 C 
ATOM     32  O   UNL     1     -12.031  16.687  68.753  0.00  0.00    -0.290 OA
BRANCH  31  33
ATOM     33  C   UNL     1     -10.688  15.198  69.886  0.00  0.00    +0.275 C 
BRANCH  33  34
ATOM     34  O   UNL     1     -11.179  15.329  71.144  0.00  0.00    -0.440 OA
BRANCH  34  35
ATOM     35  C   UNL     1     -12.298  14.515  71.379  0.00  0.00    +0.317 C 
ATOM     36  O   UNL     1     -12.439  13.382  70.832  0.00  0.00    -0.250 OA
BRANCH  35  38
ATOM     37  C   UNL     1     -14.291  15.187  71.749  0.00  0.00    +0.012 C 
ATOM     38  C   UNL     1     -13.396  14.976  72.248  0.00  0.00    +0.099 C 
ATOM     39  C   UNL     1     -12.799  15.835  73.334  0.00  0.00    +0.012 C 
ENDBRANCH  35  38
ENDBRANCH  34  35
ENDBRANCH  33  34
ENDBRANCH  31  33
ENDBRANCH   1  31
TORSDOF 6
ENDMDL
MODEL 5
REMARK VINA RESULT:      -8.5      2.739      6.515
REMARK  Name = 
REMARK  6 active torsions:
REMARK  status: ('A' for Active; 'I' for Inactive)
REMARK    1  A    between atoms: C_2  and  C_4
REMARK    2  A    between atoms: C_4  and  O_6
REMARK    3  A    between atoms: O_6  and  C_7
REMARK    4  A    between atoms: C_7  and  C_8
REMARK    5  A    between atoms: C_8  and  C_10
REMARK    6  A    between atoms: C_12  and  C_13
REMARK                            x       y       z     vdW  Elec       q    Type
REMARK                         _______ _______ _______ _____ _____    ______ ____
ROOT
ATOM      1  C   UNL     1     -10.492  11.791  66.836  0.00  0.00    +0.174 C 
ATOM      2  C   UNL     1      -9.878  12.984  67.212  0.00  0.00    +0.034 C 
ATOM      3  C   UNL     1      -9.946  13.910  65.885  0.00  0.00    +0.005 C 
ATOM      4  C   UNL     1      -9.848  15.273  66.865  0.00  0.00    +0.004 C 
ATOM      5  C   UNL     1      -8.176  15.326  66.764  0.00  0.00    +0.038 C 
ATOM      6  C   UNL     1      -7.837  14.312  68.104  0.00  0.00    +0.153 C 
ATOM      7  O   UNL     1      -8.996  14.764  68.966  0.00  0.00    -0.223 OA
ATOM      8  C   UNL     1      -7.997  16.666  67.597  0.00  0.00    +0.036 C 
ATOM      9  C   UNL     1      -9.256  17.404  67.768  0.00  0.00    -0.038 C 
ATOM     10  C   UNL     1      -9.057  18.426  68.612  0.00  0.00    +0.034 C 
ATOM     11  C   UNL     1      -7.727  19.063  68.711  0.00  0.00    +0.195 C 
ATOM     12  C   UNL     1      -6.937  18.751  67.505  0.00  0.00    +0.038 C 
ATOM     13  O   UNL     1      -7.448  19.963  69.520  0.00  0.00    -0.287 OA
ATOM     14  C   UNL     1     -10.101  17.589  66.537  0.00  0.00    +0.022 C 
ATOM     15  C   UNL     1      -7.193  16.496  68.829  0.00  0.00    +0.009 C 
ATOM     16  C   UNL     1      -7.180  17.639  66.794  0.00  0.00    -0.020 C 
ATOM     17  C   UNL     1      -9.998  16.336  65.672  0.00  0.00    +0.004 C 
ATOM     18  C   UNL     1     -11.545  13.815  65.931  0.00  0.00    +0.033 C 
ATOM     19  C   UNL     1     -10.891  13.599  68.188  0.00  0.00    +0.003 C 
ATOM     20  C   UNL     1      -8.529  12.954  67.534  0.00  0.00    +0.036 C 
ATOM     21  C   UNL     1     -11.743  12.176  65.855  0.00  0.00    +0.149 C 
ATOM     22  O   UNL     1     -11.014  12.045  64.543  0.00  0.00    -0.330 OA
ATOM     23  C   UNL     1      -9.629  11.591  64.960  0.00  0.00    +0.235 C 
ATOM     24  O   UNL     1     -10.122  10.745  66.130  0.00  0.00    -0.326 OA
ENDROOT
BRANCH  23  25
ATOM     25  C   UNL     1      -9.652  10.268  63.952  0.00  0.00    +0.057 C 
ATOM     26  C   UNL     1      -8.721   9.291  64.560  0.00  0.00    +0.005 C 
ATOM     27  C   UNL     1      -8.341   8.235  63.618  0.00  0.00    +0.000 C 
ATOM     28  C   UNL     1      -8.713   8.331  62.210  0.00  0.00    +0.000 C 
ATOM     29  C   UNL     1      -9.222   9.607  61.680  0.00  0.00    +0.000 C 
ATOM     30  C   UNL     1      -9.291  10.757  62.602  0.00  0.00    +0.005 C 
ENDBRANCH  23  25
BRANCH   1  31
ATOM     31  C   UNL     1     -11.110  11.118  68.043  0.00  0.00    +0.221 C 
ATOM     32  O   UNL     1     -12.319  11.205  68.190  0.00  0.00    -0.290 OA
BRANCH  31  33
ATOM     33  C   UNL     1     -10.309  10.326  68.893  0.00  0.00    +0.275 C 
BRANCH  33  34
ATOM     34  O   UNL     1     -10.442  10.247  70.242  0.00  0.00    -0.440 OA
BRANCH  34  35
ATOM     35  C   UNL     1     -11.147   9.106  70.653  0.00  0.00    +0.317 C 
ATOM     36  O   UNL     1     -11.016   7.984  70.080  0.00  0.00    -0.250 OA
BRANCH  35  38
ATOM     37  C   UNL     1     -12.518   8.259  72.054  0.00  0.00    +0.012 C 
ATOM     38  C   UNL     1     -12.123   9.179  71.756  0.00  0.00    +0.099 C 
ATOM     39  C   UNL     1     -12.931  10.440  71.576  0.00  0.00    +0.012 C 
ENDBRANCH  35  38
ENDBRANCH  34  35
ENDBRANCH  33  34
ENDBRANCH  31  33
ENDBRANCH   1  31
TORSDOF 6
ENDMDL
MODEL 6
REMARK VINA RESULT:      -8.5      2.812      7.391
REMARK  Name = 
REMARK  6 active torsions:
REMARK  status: ('A' for Active; 'I' for Inactive)
REMARK    1  A    between atoms: C_2  and  C_4
REMARK    2  A    between atoms: C_4  and  O_6
REMARK    3  A    between atoms: O_6  and  C_7
REMARK    4  A    between atoms: C_7  and  C_8
REMARK    5  A    between atoms: C_8  and  C_10
REMARK    6  A    between atoms: C_12  and  C_13
REMARK                            x       y       z     vdW  Elec       q    Type
REMARK                         _______ _______ _______ _____ _____    ______ ____
ROOT
ATOM      1  C   UNL     1     -10.463  14.516  67.805  0.00  0.00    +0.174 C 
ATOM      2  C   UNL     1      -9.708  13.356  67.647  0.00  0.00    +0.034 C 
ATOM      3  C   UNL     1     -10.709  12.159  68.080  0.00  0.00    +0.005 C 
ATOM      4  C   UNL     1      -9.812  11.102  67.128  0.00  0.00    +0.004 C 
ATOM      5  C   UNL     1      -8.814  10.670  68.403  0.00  0.00    +0.038 C 
ATOM      6  C   UNL     1      -7.635  11.896  68.192  0.00  0.00    +0.153 C 
ATOM      7  O   UNL     1      -7.689  11.936  66.680  0.00  0.00    -0.223 OA
ATOM      8  C   UNL     1      -7.979   9.581  67.605  0.00  0.00    +0.036 C 
ATOM      9  C   UNL     1      -8.609   9.196  66.336  0.00  0.00    -0.038 C 
ATOM     10  C   UNL     1      -7.772   8.405  65.649  0.00  0.00    +0.034 C 
ATOM     11  C   UNL     1      -6.805   7.546  66.364  0.00  0.00    +0.195 C 
ATOM     12  C   UNL     1      -7.241   7.365  67.761  0.00  0.00    +0.038 C 
ATOM     13  O   UNL     1      -5.951   6.844  65.798  0.00  0.00    -0.287 OA
ATOM     14  C   UNL     1     -10.082   8.888  66.379  0.00  0.00    +0.022 C 
ATOM     15  C   UNL     1      -6.532   9.884  67.526  0.00  0.00    +0.009 C 
ATOM     16  C   UNL     1      -8.010   8.284  68.366  0.00  0.00    -0.020 C 
ATOM     17  C   UNL     1     -10.755   9.828  67.375  0.00  0.00    +0.004 C 
ATOM     18  C   UNL     1     -11.705  12.601  66.904  0.00  0.00    +0.033 C 
ATOM     19  C   UNL     1      -9.572  13.241  66.122  0.00  0.00    +0.003 C 
ATOM     20  C   UNL     1      -8.598  13.179  68.461  0.00  0.00    +0.036 C 
ATOM     21  C   UNL     1     -11.991  14.169  67.337  0.00  0.00    +0.149 C 
ATOM     22  O   UNL     1     -12.536  13.803  68.693  0.00  0.00    -0.330 OA
ATOM     23  C   UNL     1     -11.358  14.044  69.616  0.00  0.00    +0.235 C 
ATOM     24  O   UNL     1     -10.831  15.245  68.837  0.00  0.00    -0.326 OA
ENDROOT
BRANCH  23  25
ATOM     25  C   UNL     1     -12.226  15.039  70.627  0.00  0.00    +0.057 C 
ATOM     26  C   UNL     1     -11.325  15.330  71.764  0.00  0.00    +0.005 C 
ATOM     27  C   UNL     1     -12.051  15.880  72.913  0.00  0.00    +0.000 C 
ATOM     28  C   UNL     1     -13.510  15.906  72.923  0.00  0.00    +0.000 C 
ATOM     29  C   UNL     1     -14.254  15.132  71.915  0.00  0.00    +0.000 C 
ATOM     30  C   UNL     1     -13.479  14.322  70.956  0.00  0.00    +0.005 C 
ENDBRANCH  23  25
BRANCH   1  31
ATOM     31  C   UNL     1      -9.977  15.590  66.855  0.00  0.00    +0.221 C 
ATOM     32  O   UNL     1     -10.727  15.943  65.959  0.00  0.00    -0.290 OA
BRANCH  31  33
ATOM     33  C   UNL     1      -8.740  16.229  67.089  0.00  0.00    +0.275 C 
BRANCH  33  34
ATOM     34  O   UNL     1      -8.584  17.428  67.703  0.00  0.00    -0.440 OA
BRANCH  34  35
ATOM     35  C   UNL     1      -8.691  18.511  66.817  0.00  0.00    +0.317 C 
ATOM     36  O   UNL     1      -7.967  18.617  65.784  0.00  0.00    -0.250 OA
BRANCH  35  38
ATOM     37  C   UNL     1      -9.910  19.721  68.088  0.00  0.00    +0.012 C 
ATOM     38  C   UNL     1      -9.634  19.613  67.085  0.00  0.00    +0.099 C 
ATOM     39  C   UNL     1     -10.589  19.699  65.921  0.00  0.00    +0.012 C 
ENDBRANCH  35  38
ENDBRANCH  34  35
ENDBRANCH  33  34
ENDBRANCH  31  33
ENDBRANCH   1  31
TORSDOF 6
ENDMDL
MODEL 7
REMARK VINA RESULT:      -8.4      4.680      9.251
REMARK  Name = 
REMARK  6 active torsions:
REMARK  status: ('A' for Active; 'I' for Inactive)
REMARK    1  A    between atoms: C_2  and  C_4
REMARK    2  A    between atoms: C_4  and  O_6
REMARK    3  A    between atoms: O_6  and  C_7
REMARK    4  A    between atoms: C_7  and  C_8
REMARK    5  A    between atoms: C_8  and  C_10
REMARK    6  A    between atoms: C_12  and  C_13
REMARK                            x       y       z     vdW  Elec       q    Type
REMARK                         _______ _______ _______ _____ _____    ______ ____
ROOT
ATOM      1  C   UNL     1      -9.799  11.296  67.400  0.00  0.00    +0.174 C 
ATOM      2  C   UNL     1      -9.793  10.274  68.348  0.00  0.00    +0.034 C 
ATOM      3  C   UNL     1     -10.694  10.846  69.565  0.00  0.00    +0.005 C 
ATOM      4  C   UNL     1     -11.022   9.263  70.029  0.00  0.00    +0.004 C 
ATOM      5  C   UNL     1      -9.715   9.212  71.077  0.00  0.00    +0.038 C 
ATOM      6  C   UNL     1      -8.544   8.663  69.951  0.00  0.00    +0.153 C 
ATOM      7  O   UNL     1      -9.470   7.770  69.154  0.00  0.00    -0.223 OA
ATOM      8  C   UNL     1     -10.007   7.759  71.644  0.00  0.00    +0.036 C 
ATOM      9  C   UNL     1     -11.356   7.278  71.317  0.00  0.00    -0.038 C 
ATOM     10  C   UNL     1     -11.469   5.994  71.682  0.00  0.00    +0.034 C 
ATOM     11  C   UNL     1     -10.678   5.470  72.816  0.00  0.00    +0.195 C 
ATOM     12  C   UNL     1     -10.222   6.589  73.661  0.00  0.00    +0.038 C 
ATOM     13  O   UNL     1     -10.674   4.278  73.165  0.00  0.00    -0.287 OA
ATOM     14  C   UNL     1     -12.490   8.239  71.555  0.00  0.00    +0.022 C 
ATOM     15  C   UNL     1      -8.914   6.792  71.391  0.00  0.00    +0.009 C 
ATOM     16  C   UNL     1     -10.062   7.818  73.145  0.00  0.00    -0.020 C 
ATOM     17  C   UNL     1     -12.021   9.653  71.223  0.00  0.00    +0.004 C 
ATOM     18  C   UNL     1     -11.936  10.961  68.559  0.00  0.00    +0.033 C 
ATOM     19  C   UNL     1     -10.650   9.186  67.684  0.00  0.00    +0.003 C 
ATOM     20  C   UNL     1      -8.586   9.942  68.947  0.00  0.00    +0.036 C 
ATOM     21  C   UNL     1     -11.292  11.962  67.413  0.00  0.00    +0.149 C 
ATOM     22  O   UNL     1     -11.007  13.070  68.394  0.00  0.00    -0.330 OA
ATOM     23  C   UNL     1      -9.530  12.898  68.689  0.00  0.00    +0.235 C 
ATOM     24  O   UNL     1      -9.171  12.445  67.278  0.00  0.00    -0.326 OA
ENDROOT
BRANCH  23  25
ATOM     25  C   UNL     1      -9.169  14.477  68.310  0.00  0.00    +0.057 C 
ATOM     26  C   UNL     1     -10.475  15.158  68.167  0.00  0.00    +0.005 C 
ATOM     27  C   UNL     1     -10.351  16.445  67.477  0.00  0.00    +0.000 C 
ATOM     28  C   UNL     1      -9.089  16.831  66.854  0.00  0.00    +0.000 C 
ATOM     29  C   UNL     1      -8.032  15.822  66.673  0.00  0.00    +0.000 C 
ATOM     30  C   UNL     1      -8.319  14.439  67.098  0.00  0.00    +0.005 C 
ENDBRANCH  23  25
BRANCH   1  31
ATOM     31  C   UNL     1      -9.618  10.722  66.011  0.00  0.00    +0.221 C 
ATOM     32  O   UNL     1      -8.597  10.093  65.780  0.00  0.00    -0.290 OA
BRANCH  31  33
ATOM     33  C   UNL     1     -10.661  10.826  65.066  0.00  0.00    +0.275 C 
BRANCH  33  34
ATOM     34  O   UNL     1     -10.655  11.641  63.982  0.00  0.00    -0.440 OA
BRANCH  34  35
ATOM     35  C   UNL     1     -11.781  12.476  63.923  0.00  0.00    +0.317 C 
ATOM     36  O   UNL     1     -12.883  12.094  63.432  0.00  0.00    -0.250 OA
BRANCH  35  38
ATOM     37  C   UNL     1     -10.740  14.231  64.556  0.00  0.00    +0.012 C 
ATOM     38  C   UNL     1     -11.709  13.872  64.392  0.00  0.00    +0.099 C 
ATOM     39  C   UNL     1     -12.878  14.111  65.315  0.00  0.00    +0.012 C 
ENDBRANCH  35  38
ENDBRANCH  34  35
ENDBRANCH  33  34
ENDBRANCH  31  33
ENDBRANCH   1  31
TORSDOF 6
ENDMDL
MODEL 8
REMARK VINA RESULT:      -8.2      2.929      7.475
REMARK  Name = 
REMARK  6 active torsions:
REMARK  status: ('A' for Active; 'I' for Inactive)
REMARK    1  A    between atoms: C_2  and  C_4
REMARK    2  A    between atoms: C_4  and  O_6
REMARK    3  A    between atoms: O_6  and  C_7
REMARK    4  A    between atoms: C_7  and  C_8
REMARK    5  A    between atoms: C_8  and  C_10
REMARK    6  A    between atoms: C_12  and  C_13
REMARK                            x       y       z     vdW  Elec       q    Type
REMARK                         _______ _______ _______ _____ _____    ______ ____
ROOT
ATOM      1  C   UNL     1      -7.580  19.327  66.639  0.00  0.00    +0.174 C 
ATOM      2  C   UNL     1      -7.247  18.112  67.234  0.00  0.00    +0.034 C 
ATOM      3  C   UNL     1      -5.701  18.291  67.681  0.00  0.00    +0.005 C 
ATOM      4  C   UNL     1      -5.934  17.112  68.858  0.00  0.00    +0.004 C 
ATOM      5  C   UNL     1      -5.450  15.877  67.834  0.00  0.00    +0.038 C 
ATOM      6  C   UNL     1      -6.986  15.533  67.154  0.00  0.00    +0.153 C 
ATOM      7  O   UNL     1      -7.797  15.799  68.405  0.00  0.00    -0.223 OA
ATOM      8  C   UNL     1      -5.548  14.715  68.911  0.00  0.00    +0.036 C 
ATOM      9  C   UNL     1      -5.653  15.218  70.287  0.00  0.00    -0.038 C 
ATOM     10  C   UNL     1      -5.895  14.193  71.115  0.00  0.00    +0.034 C 
ATOM     11  C   UNL     1      -5.406  12.838  70.786  0.00  0.00    +0.195 C 
ATOM     12  C   UNL     1      -4.317  12.930  69.796  0.00  0.00    +0.038 C 
ATOM     13  O   UNL     1      -5.653  11.827  71.465  0.00  0.00    -0.287 OA
ATOM     14  C   UNL     1      -4.688  16.303  70.683  0.00  0.00    +0.022 C 
ATOM     15  C   UNL     1      -6.516  13.652  68.551  0.00  0.00    +0.009 C 
ATOM     16  C   UNL     1      -4.239  13.976  68.956  0.00  0.00    -0.020 C 
ATOM     17  C   UNL     1      -4.462  17.226  69.488  0.00  0.00    +0.004 C 
ATOM     18  C   UNL     1      -6.139  19.516  68.616  0.00  0.00    +0.033 C 
ATOM     19  C   UNL     1      -8.053  18.138  68.541  0.00  0.00    +0.003 C 
ATOM     20  C   UNL     1      -7.240  16.973  66.442  0.00  0.00    +0.036 C 
ATOM     21  C   UNL     1      -6.836  20.507  67.493  0.00  0.00    +0.149 C 
ATOM     22  O   UNL     1      -5.588  20.603  66.653  0.00  0.00    -0.330 OA
ATOM     23  C   UNL     1      -5.843  19.606  65.540  0.00  0.00    +0.235 C 
ATOM     24  O   UNL     1      -7.342  19.878  65.469  0.00  0.00    -0.326 OA
ENDROOT
BRANCH  23  25
ATOM     25  C   UNL     1      -5.551  20.720  64.340  0.00  0.00    +0.057 C 
ATOM     26  C   UNL     1      -5.942  20.054  63.078  0.00  0.00    +0.005 C 
ATOM     27  C   UNL     1      -5.407  20.747  61.903  0.00  0.00    +0.000 C 
ATOM     28  C   UNL     1      -4.440  21.829  62.058  0.00  0.00    +0.000 C 
ATOM     29  C   UNL     1      -3.793  22.040  63.365  0.00  0.00    +0.000 C 
ATOM     30  C   UNL     1      -4.126  21.106  64.458  0.00  0.00    +0.005 C 
ENDBRANCH  23  25
BRANCH   1  31
ATOM     31  C   UNL     1      -9.064  19.591  66.783  0.00  0.00    +0.221 C 
ATOM     32  O   UNL     1      -9.413  20.514  67.502  0.00  0.00    -0.290 OA
BRANCH  31  33
ATOM     33  C   UNL     1      -9.987  18.853  66.012  0.00  0.00    +0.275 C 
BRANCH  33  34
ATOM     34  O   UNL     1     -10.697  17.784  66.454  0.00  0.00    -0.440 OA
BRANCH  34  35
ATOM     35  C   UNL     1     -10.788  16.760  65.500  0.00  0.00    +0.317 C 
ATOM     36  O   UNL     1     -11.197  16.967  64.320  0.00  0.00    -0.250 OA
BRANCH  35  38
ATOM     37  C   UNL     1     -10.497  14.691  65.060  0.00  0.00    +0.012 C 
ATOM     38  C   UNL     1     -10.453  15.368  65.855  0.00  0.00    +0.099 C 
ATOM     39  C   UNL     1     -10.990  15.101  67.238  0.00  0.00    +0.012 C 
ENDBRANCH  35  38
ENDBRANCH  34  35
ENDBRANCH  33  34
ENDBRANCH  31  33
ENDBRANCH   1  31
TORSDOF 6
ENDMDL
MODEL 9
REMARK VINA RESULT:      -7.8      2.760      4.157
REMARK  Name = 
REMARK  6 active torsions:
REMARK  status: ('A' for Active; 'I' for Inactive)
REMARK    1  A    between atoms: C_2  and  C_4
REMARK    2  A    between atoms: C_4  and  O_6
REMARK    3  A    between atoms: O_6  and  C_7
REMARK    4  A    between atoms: C_7  and  C_8
REMARK    5  A    between atoms: C_8  and  C_10
REMARK    6  A    between atoms: C_12  and  C_13
REMARK                            x       y       z     vdW  Elec       q    Type
REMARK                         _______ _______ _______ _____ _____    ______ ____
ROOT
ATOM      1  C   UNL     1     -10.766  12.119  67.196  0.00  0.00    +0.174 C 
ATOM      2  C   UNL     1     -10.514  13.490  67.218  0.00  0.00    +0.034 C 
ATOM      3  C   UNL     1      -9.733  13.735  68.615  0.00  0.00    +0.005 C 
ATOM      4  C   UNL     1      -9.041  15.118  67.953  0.00  0.00    +0.004 C 
ATOM      5  C   UNL     1     -10.272  16.104  68.518  0.00  0.00    +0.038 C 
ATOM      6  C   UNL     1     -11.318  15.954  67.168  0.00  0.00    +0.153 C 
ATOM      7  O   UNL     1     -10.235  15.882  66.112  0.00  0.00    -0.223 OA
ATOM      8  C   UNL     1      -9.642  17.470  68.013  0.00  0.00    +0.036 C 
ATOM      9  C   UNL     1      -8.228  17.342  67.634  0.00  0.00    -0.038 C 
ATOM     10  C   UNL     1      -7.817  18.485  67.069  0.00  0.00    +0.034 C 
ATOM     11  C   UNL     1      -8.436  19.771  67.452  0.00  0.00    +0.195 C 
ATOM     12  C   UNL     1      -9.112  19.627  68.755  0.00  0.00    +0.038 C 
ATOM     13  O   UNL     1      -8.159  20.859  66.921  0.00  0.00    -0.287 OA
ATOM     14  C   UNL     1      -7.336  16.606  68.598  0.00  0.00    +0.022 C 
ATOM     15  C   UNL     1     -10.493  18.193  67.040  0.00  0.00    +0.009 C 
ATOM     16  C   UNL     1      -9.561  18.430  69.167  0.00  0.00    -0.020 C 
ATOM     17  C   UNL     1      -8.124  15.459  69.225  0.00  0.00    +0.004 C 
ATOM     18  C   UNL     1      -8.577  12.743  68.115  0.00  0.00    +0.033 C 
ATOM     19  C   UNL     1      -9.450  13.659  66.123  0.00  0.00    +0.003 C 
ATOM     20  C   UNL     1     -11.596  14.355  67.279  0.00  0.00    +0.036 C 
ATOM     21  C   UNL     1      -9.464  11.375  67.847  0.00  0.00    +0.149 C 
ATOM     22  O   UNL     1      -9.966  11.298  69.265  0.00  0.00    -0.330 OA
ATOM     23  C   UNL     1     -11.356  11.894  69.172  0.00  0.00    +0.235 C 
ATOM     24  O   UNL     1     -11.641  11.333  67.783  0.00  0.00    -0.326 OA
ENDROOT
BRANCH  23  25
ATOM     25  C   UNL     1     -12.077  10.578  69.889  0.00  0.00    +0.057 C 
ATOM     26  C   UNL     1     -12.801  11.114  71.062  0.00  0.00    +0.005 C 
ATOM     27  C   UNL     1     -13.177  10.056  72.005  0.00  0.00    +0.000 C 
ATOM     28  C   UNL     1     -12.673   8.698  71.833  0.00  0.00    +0.000 C 
ATOM     29  C   UNL     1     -11.574   8.448  70.885  0.00  0.00    +0.000 C 
ATOM     30  C   UNL     1     -10.997   9.607  70.178  0.00  0.00    +0.005 C 
ENDBRANCH  23  25
BRANCH   1  31
ATOM     31  C   UNL     1     -10.850  11.626  65.768  0.00  0.00    +0.221 C 
ATOM     32  O   UNL     1     -11.736  12.075  65.058  0.00  0.00    -0.290 OA
BRANCH  31  33
ATOM     33  C   UNL     1      -9.854  10.762  65.263  0.00  0.00    +0.275 C 
BRANCH  33  34
ATOM     34  O   UNL     1     -10.029   9.444  64.991  0.00  0.00    -0.440 OA
BRANCH  34  35
ATOM     35  C   UNL     1      -9.097   8.625  65.648  0.00  0.00    +0.317 C 
ATOM     36  O   UNL     1      -8.022   8.245  65.099  0.00  0.00    -0.250 OA
BRANCH  35  38
ATOM     37  C   UNL     1      -8.521   7.764  67.516  0.00  0.00    +0.012 C 
ATOM     38  C   UNL     1      -9.361   8.127  67.011  0.00  0.00    +0.099 C 
ATOM     39  C   UNL     1     -10.712   7.456  67.005  0.00  0.00    +0.012 C 
ENDBRANCH  35  38
ENDBRANCH  34  35
ENDBRANCH  33  34
ENDBRANCH  31  33
ENDBRANCH   1  31
TORSDOF 6
ENDMDL
