MODEL 1
REMARK VINA RESULT:      -8.2      0.000      0.000
REMARK  Name = 
REMARK  10 active torsions:
REMARK  status: ('A' for Active; 'I' for Inactive)
REMARK    1  A    between atoms: C_2  and  C_3
REMARK    2  A    between atoms: C_3  and  C_4
REMARK    3  A    between atoms: C_4  and  C_5
REMARK    4  A    between atoms: C_5  and  C_7
REMARK    5  A    between atoms: C_7  and  C_8
REMARK    6  A    between atoms: N_10  and  C_11
REMARK    7  A    between atoms: C_11  and  C_12
REMARK    8  A    between atoms: CA_16  and  C_17
REMARK    9  A    between atoms: C_28  and  C_29
REMARK   10  A    between atoms: C_40  and  N_41
REMARK                            x       y       z     vdW  Elec       q    Type
REMARK                         _______ _______ _______ _____ _____    ______ ____
ROOT
ATOM      1  C   UNL     1      -7.386  16.838  69.154  0.00  0.00    +0.195 C 
ATOM      2  C   UNL     1      -6.449  16.409  67.928  0.00  0.00    +0.267 C 
ATOM      3  O   UNL     1      -6.991  15.969  66.864  0.00  0.00    -0.271 OA
ATOM      4  N   UNL     1      -5.317  15.628  68.040  0.00  0.00    -0.172 NA
ATOM      5  C   UNL     1      -4.925  15.143  69.276  0.00  0.00    +0.145 C 
ATOM      6  C   UNL     1      -4.507  13.914  69.582  0.00  0.00    +0.112 C 
ATOM      7  C   UNL     1      -5.052  16.269  70.199  0.00  0.00    +0.282 C 
ATOM      8  O   UNL     1      -4.857  16.003  71.429  0.00  0.00    -0.267 OA
ATOM      9  N   UNL     1      -4.290  17.105  69.569  0.00  0.00    -0.189 NA
ATOM     10  C   UNL     1      -4.043  17.957  68.351  0.00  0.00    +0.210 C 
ATOM     11  C   UNL     1      -2.857  17.223  67.543  0.00  0.00    +0.265 C 
ATOM     12  O   UNL     1      -1.951  16.704  68.141  0.00  0.00    -0.271 OA
ATOM     13  N   UNL     1      -2.805  17.984  66.322  0.00  0.00    -0.202 NA
ATOM     14  C   UNL     1      -3.522  19.226  66.035  0.00  0.00    +0.144 C 
ATOM     15  CA  UNL     1      -5.048  18.935  66.577  0.00  0.00    +0.191 C 
ATOM     16  N   UNL     1      -5.254  17.906  65.387  0.00  0.00    -0.121 NA
ATOM     17  C   UNL     1      -5.829  20.132  65.838  0.00  0.00    +0.261 C 
ATOM     18  O   UNL     1      -5.177  20.945  65.171  0.00  0.00    -0.272 OA
ATOM     19  N   UNL     1      -6.586  20.597  66.916  0.00  0.00    -0.194 NA
ATOM     20  CA  UNL     1      -7.827  19.812  67.507  0.00  0.00    +0.205 C 
ATOM     21  C   UNL     1      -6.960  19.005  68.554  0.00  0.00    +0.264 C 
ATOM     22  O   UNL     1      -6.644  19.900  69.413  0.00  0.00    -0.271 OA
ATOM     23  N   UNL     1      -8.043  18.136  68.628  0.00  0.00    -0.194 NA
ENDROOT
BRANCH  10  24
ATOM     24  C   UNL     1      -2.835  18.975  69.062  0.00  0.00    +0.202 C 
ATOM     25  N   UNL     1      -3.437  19.082  70.497  0.00  0.00    -0.062 NA
ATOM     26  C   UNL     1      -2.954  20.200  71.209  0.00  0.00    +0.473 C 
ATOM     27  N   UNL     1      -2.927  20.252  72.631  0.00  0.00    +0.147 NA
ATOM     28  N   UNL     1      -2.172  20.994  70.562  0.00  0.00    -0.094 NA
ATOM     29  C   UNL     1      -2.550  21.376  69.213  0.00  0.00    +0.223 C 
ATOM     30  C   UNL     1      -3.511  20.378  68.582  0.00  0.00    +0.090 C 
ENDBRANCH  10  24
BRANCH   6  31
ATOM     31  N   UNL     1      -4.446  13.585  70.959  0.00  0.00    -0.157 NA
ATOM     32  C   UNL     1      -5.074  12.366  71.308  0.00  0.00    +0.363 C 
ATOM     33  O   UNL     1      -6.122  12.061  70.667  0.00  0.00    -0.247 OA
ATOM     34  N   UNL     1      -4.737  11.838  72.573  0.00  0.00    -0.068 NA
ENDBRANCH   6  31
BRANCH  20  35
ATOM     35  C   UNL     1      -7.957  18.793  66.227  0.00  0.00    +0.213 C 
ATOM     36  O   UNL     1      -9.214  19.091  65.779  0.00  0.00    -0.218 OA
ENDBRANCH  20  35
BRANCH   1  37
ATOM     37  C   UNL     1      -8.653  15.903  68.634  0.00  0.00    +0.146 C 
BRANCH  37  39
ATOM     38  C   UNL     1     -10.946  15.739  69.392  0.00  0.00    +0.243 C 
ATOM     39  N   UNL     1      -9.553  15.703  69.690  0.00  0.00    -0.203 NA
ATOM     40  O   UNL     1     -11.359  16.779  68.841  0.00  0.00    -0.273 OA
BRANCH  38  41
ATOM     41  C   UNL     1     -11.932  14.758  69.917  0.00  0.00    +0.106 C 
BRANCH  41  42
ATOM     42  C   UNL     1     -12.859  15.648  70.941  0.00  0.00    +0.101 C 
ATOM     43  N   UNL     1     -13.794  14.423  71.256  0.00  0.00    -0.132 NA
BRANCH  42  44
ATOM     44  C   UNL     1     -11.901  15.317  72.233  0.00  0.00    +0.021 C 
BRANCH  44  45
ATOM     45  C   UNL     1     -12.904  15.009  73.305  0.00  0.00    +0.022 C 
BRANCH  45  47
ATOM     46  N   UNL     1     -12.516  16.653  74.845  0.00  0.00    -0.131 NA
ATOM     47  C   UNL     1     -12.452  15.565  74.641  0.00  0.00    +0.109 C 
ENDBRANCH  45  47
ENDBRANCH  44  45
ENDBRANCH  42  44
ENDBRANCH  41  42
ENDBRANCH  38  41
ENDBRANCH  37  39
ENDBRANCH   1  37
TORSDOF 10
ENDMDL
MODEL 2
REMARK VINA RESULT:      -7.8      1.916      2.947
REMARK  Name = 
REMARK  10 active torsions:
REMARK  status: ('A' for Active; 'I' for Inactive)
REMARK    1  A    between atoms: C_2  and  C_3
REMARK    2  A    between atoms: C_3  and  C_4
REMARK    3  A    between atoms: C_4  and  C_5
REMARK    4  A    between atoms: C_5  and  C_7
REMARK    5  A    between atoms: C_7  and  C_8
REMARK    6  A    between atoms: N_10  and  C_11
REMARK    7  A    between atoms: C_11  and  C_12
REMARK    8  A    between atoms: CA_16  and  C_17
REMARK    9  A    between atoms: C_28  and  C_29
REMARK   10  A    between atoms: C_40  and  N_41
REMARK                            x       y       z     vdW  Elec       q    Type
REMARK                         _______ _______ _______ _____ _____    ______ ____
ROOT
ATOM      1  C   UNL     1      -8.015  17.158  68.694  0.00  0.00    +0.195 C 
ATOM      2  C   UNL     1      -7.131  16.790  67.409  0.00  0.00    +0.267 C 
ATOM      3  O   UNL     1      -7.719  16.553  66.306  0.00  0.00    -0.271 OA
ATOM      4  N   UNL     1      -6.092  15.882  67.404  0.00  0.00    -0.172 NA
ATOM      5  C   UNL     1      -5.756  15.203  68.562  0.00  0.00    +0.145 C 
ATOM      6  C   UNL     1      -5.476  13.906  68.702  0.00  0.00    +0.112 C 
ATOM      7  C   UNL     1      -5.758  16.207  69.623  0.00  0.00    +0.282 C 
ATOM      8  O   UNL     1      -5.593  15.766  70.806  0.00  0.00    -0.267 OA
ATOM      9  N   UNL     1      -4.908  17.029  69.094  0.00  0.00    -0.189 NA
ATOM     10  C   UNL     1      -4.569  17.998  67.991  0.00  0.00    +0.210 C 
ATOM     11  C   UNL     1      -3.471  17.248  67.079  0.00  0.00    +0.265 C 
ATOM     12  O   UNL     1      -2.628  16.562  67.593  0.00  0.00    -0.271 OA
ATOM     13  N   UNL     1      -3.337  18.150  65.964  0.00  0.00    -0.202 NA
ATOM     14  C   UNL     1      -3.912  19.490  65.849  0.00  0.00    +0.144 C 
ATOM     15  CA  UNL     1      -5.460  19.300  66.372  0.00  0.00    +0.191 C 
ATOM     16  N   UNL     1      -5.779  18.462  65.063  0.00  0.00    -0.121 NA
ATOM     17  C   UNL     1      -6.104  20.660  65.803  0.00  0.00    +0.261 C 
ATOM     18  O   UNL     1      -5.367  21.476  65.235  0.00  0.00    -0.272 OA
ATOM     19  N   UNL     1      -6.806  21.063  66.942  0.00  0.00    -0.194 NA
ATOM     20  CA  UNL     1      -8.125  20.349  67.447  0.00  0.00    +0.205 C 
ATOM     21  C   UNL     1      -7.353  19.324  68.369  0.00  0.00    +0.264 C 
ATOM     22  O   UNL     1      -6.939  20.062  69.331  0.00  0.00    -0.271 OA
ATOM     23  N   UNL     1      -8.525  18.576  68.347  0.00  0.00    -0.194 NA
ENDROOT
BRANCH  10  24
ATOM     24  C   UNL     1      -3.256  18.778  68.809  0.00  0.00    +0.202 C 
ATOM     25  N   UNL     1      -3.949  19.019  70.185  0.00  0.00    -0.062 NA
ATOM     26  C   UNL     1      -3.326  20.034  70.940  0.00  0.00    +0.473 C 
ATOM     27  N   UNL     1      -3.414  20.101  72.359  0.00  0.00    +0.147 NA
ATOM     28  N   UNL     1      -2.353  20.656  70.366  0.00  0.00    -0.094 NA
ATOM     29  C   UNL     1      -2.532  21.083  68.991  0.00  0.00    +0.223 C 
ATOM     30  C   UNL     1      -3.607  20.277  68.274  0.00  0.00    +0.090 C 
ENDBRANCH  10  24
BRANCH   6  31
ATOM     31  N   UNL     1      -5.451  13.398  70.025  0.00  0.00    -0.157 NA
ATOM     32  C   UNL     1      -5.870  12.052  70.154  0.00  0.00    +0.363 C 
ATOM     33  O   UNL     1      -6.798  11.668  69.384  0.00  0.00    -0.247 OA
ATOM     34  N   UNL     1      -5.531  11.413  71.366  0.00  0.00    -0.068 NA
ENDBRANCH   6  31
BRANCH  20  35
ATOM     35  C   UNL     1      -8.367  19.523  66.048  0.00  0.00    +0.213 C 
ATOM     36  O   UNL     1      -9.665  19.852  65.769  0.00  0.00    -0.218 OA
ENDBRANCH  20  35
BRANCH   1  37
ATOM     37  C   UNL     1      -9.377  16.442  68.077  0.00  0.00    +0.146 C 
BRANCH  37  39
ATOM     38  C   UNL     1     -11.227  15.166  68.979  0.00  0.00    +0.243 C 
ATOM     39  N   UNL     1      -9.832  15.455  68.963  0.00  0.00    -0.203 NA
ATOM     40  O   UNL     1     -11.981  16.135  69.198  0.00  0.00    -0.273 OA
BRANCH  38  41
ATOM     41  C   UNL     1     -11.789  13.791  69.008  0.00  0.00    +0.106 C 
BRANCH  41  42
ATOM     42  C   UNL     1     -11.047  13.041  67.748  0.00  0.00    +0.101 C 
ATOM     43  N   UNL     1     -11.973  11.775  67.879  0.00  0.00    -0.132 NA
BRANCH  42  44
ATOM     44  C   UNL     1     -12.050  13.724  66.641  0.00  0.00    +0.021 C 
BRANCH  44  45
ATOM     45  C   UNL     1     -12.013  12.729  65.518  0.00  0.00    +0.022 C 
BRANCH  45  47
ATOM     46  N   UNL     1     -12.530  14.458  64.115  0.00  0.00    -0.131 NA
ATOM     47  C   UNL     1     -12.129  13.426  64.177  0.00  0.00    +0.109 C 
ENDBRANCH  45  47
ENDBRANCH  44  45
ENDBRANCH  42  44
ENDBRANCH  41  42
ENDBRANCH  38  41
ENDBRANCH  37  39
ENDBRANCH   1  37
TORSDOF 10
ENDMDL
MODEL 3
REMARK VINA RESULT:      -7.6      3.132      6.392
REMARK  Name = 
REMARK  10 active torsions:
REMARK  status: ('A' for Active; 'I' for Inactive)
REMARK    1  A    between atoms: C_2  and  C_3
REMARK    2  A    between atoms: C_3  and  C_4
REMARK    3  A    between atoms: C_4  and  C_5
REMARK    4  A    between atoms: C_5  and  C_7
REMARK    5  A    between atoms: C_7  and  C_8
REMARK    6  A    between atoms: N_10  and  C_11
REMARK    7  A    between atoms: C_11  and  C_12
REMARK    8  A    between atoms: CA_16  and  C_17
REMARK    9  A    between atoms: C_28  and  C_29
REMARK   10  A    between atoms: C_40  and  N_41
REMARK                            x       y       z     vdW  Elec       q    Type
REMARK                         _______ _______ _______ _____ _____    ______ ____
ROOT
ATOM      1  C   UNL     1      -6.824  14.977  67.498  0.00  0.00    +0.195 C 
ATOM      2  C   UNL     1      -6.969  15.736  68.901  0.00  0.00    +0.267 C 
ATOM      3  O   UNL     1      -7.112  15.048  69.961  0.00  0.00    -0.271 OA
ATOM      4  N   UNL     1      -7.792  16.821  69.126  0.00  0.00    -0.172 NA
ATOM      5  C   UNL     1      -8.581  17.320  68.104  0.00  0.00    +0.145 C 
ATOM      6  C   UNL     1      -9.861  17.690  68.160  0.00  0.00    +0.112 C 
ATOM      7  C   UNL     1      -7.715  17.374  66.928  0.00  0.00    +0.282 C 
ATOM      8  O   UNL     1      -8.283  17.691  65.834  0.00  0.00    -0.267 OA
ATOM      9  N   UNL     1      -6.776  18.111  67.430  0.00  0.00    -0.189 NA
ATOM     10  C   UNL     1      -5.658  18.271  68.428  0.00  0.00    +0.210 C 
ATOM     11  C   UNL     1      -6.210  19.306  69.535  0.00  0.00    +0.265 C 
ATOM     12  O   UNL     1      -6.892  20.238  69.199  0.00  0.00    -0.271 OA
ATOM     13  N   UNL     1      -5.173  19.265  70.532  0.00  0.00    -0.202 NA
ATOM     14  C   UNL     1      -3.875  18.603  70.417  0.00  0.00    +0.144 C 
ATOM     15  CA  UNL     1      -4.237  17.134  69.771  0.00  0.00    +0.191 C 
ATOM     16  N   UNL     1      -4.932  16.725  71.138  0.00  0.00    -0.121 NA
ATOM     17  C   UNL     1      -2.869  16.352  70.094  0.00  0.00    +0.261 C 
ATOM     18  O   UNL     1      -1.939  16.975  70.623  0.00  0.00    -0.272 OA
ATOM     19  N   UNL     1      -2.658  15.756  68.848  0.00  0.00    -0.194 NA
ATOM     20  CA  UNL     1      -3.521  14.544  68.309  0.00  0.00    +0.205 C 
ATOM     21  C   UNL     1      -4.592  15.470  67.608  0.00  0.00    +0.264 C 
ATOM     22  O   UNL     1      -3.949  15.942  66.606  0.00  0.00    -0.271 OA
ATOM     23  N   UNL     1      -5.414  14.349  67.608  0.00  0.00    -0.194 NA
ENDROOT
BRANCH  10  24
ATOM     24  C   UNL     1      -4.890  19.616  67.653  0.00  0.00    +0.202 C 
ATOM     25  N   UNL     1      -5.395  19.366  66.199  0.00  0.00    -0.062 NA
ATOM     26  C   UNL     1      -4.600  20.007  65.227  0.00  0.00    +0.473 C 
ATOM     27  N   UNL     1      -5.096  20.365  63.942  0.00  0.00    +0.147 NA
ATOM     28  N   UNL     1      -3.552  20.620  65.661  0.00  0.00    -0.094 NA
ATOM     29  C   UNL     1      -2.716  19.941  66.634  0.00  0.00    +0.223 C 
ATOM     30  C   UNL     1      -3.475  18.854  67.383  0.00  0.00    +0.090 C 
ENDBRANCH  10  24
BRANCH   6  31
ATOM     31  N   UNL     1     -10.522  17.888  66.922  0.00  0.00    -0.157 NA
ATOM     32  C   UNL     1     -10.755  19.241  66.581  0.00  0.00    +0.363 C 
ATOM     33  O   UNL     1     -11.022  20.031  67.533  0.00  0.00    -0.247 OA
ATOM     34  N   UNL     1     -11.080  19.490  65.230  0.00  0.00    -0.068 NA
ENDBRANCH   6  31
BRANCH  20  35
ATOM     35  C   UNL     1      -4.187  14.201  69.771  0.00  0.00    +0.213 C 
ATOM     36  O   UNL     1      -3.614  12.990  70.044  0.00  0.00    -0.218 OA
ENDBRANCH  20  35
BRANCH   1  37
ATOM     37  C   UNL     1      -7.556  13.601  68.062  0.00  0.00    +0.146 C 
BRANCH  37  39
ATOM     38  C   UNL     1      -9.738  13.999  67.090  0.00  0.00    +0.243 C 
ATOM     39  N   UNL     1      -8.559  13.202  67.167  0.00  0.00    -0.203 NA
ATOM     40  O   UNL     1     -10.348  14.174  68.164  0.00  0.00    -0.273 OA
BRANCH  38  41
ATOM     41  C   UNL     1     -10.390  14.394  65.815  0.00  0.00    +0.106 C 
BRANCH  41  42
ATOM     42  C   UNL     1     -11.962  13.969  66.034  0.00  0.00    +0.101 C 
ATOM     43  N   UNL     1     -12.373  14.535  64.625  0.00  0.00    -0.132 NA
BRANCH  42  44
ATOM     44  C   UNL     1     -11.730  12.464  65.419  0.00  0.00    +0.021 C 
BRANCH  44  45
ATOM     45  C   UNL     1     -11.524  12.742  63.959  0.00  0.00    +0.022 C 
BRANCH  45  47
ATOM     46  N   UNL     1     -10.373  10.879  63.304  0.00  0.00    -0.131 NA
ATOM     47  C   UNL     1     -10.327  11.980  63.428  0.00  0.00    +0.109 C 
ENDBRANCH  45  47
ENDBRANCH  44  45
ENDBRANCH  42  44
ENDBRANCH  41  42
ENDBRANCH  38  41
ENDBRANCH  37  39
ENDBRANCH   1  37
TORSDOF 10
ENDMDL
MODEL 4
REMARK VINA RESULT:      -7.6      5.822     11.058
REMARK  Name = 
REMARK  10 active torsions:
REMARK  status: ('A' for Active; 'I' for Inactive)
REMARK    1  A    between atoms: C_2  and  C_3
REMARK    2  A    between atoms: C_3  and  C_4
REMARK    3  A    between atoms: C_4  and  C_5
REMARK    4  A    between atoms: C_5  and  C_7
REMARK    5  A    between atoms: C_7  and  C_8
REMARK    6  A    between atoms: N_10  and  C_11
REMARK    7  A    between atoms: C_11  and  C_12
REMARK    8  A    between atoms: CA_16  and  C_17
REMARK    9  A    between atoms: C_28  and  C_29
REMARK   10  A    between atoms: C_40  and  N_41
REMARK                            x       y       z     vdW  Elec       q    Type
REMARK                         _______ _______ _______ _____ _____    ______ ____
ROOT
ATOM      1  C   UNL     1      -8.055  10.796  69.119  0.00  0.00    +0.195 C 
ATOM      2  C   UNL     1      -7.882   9.628  68.036  0.00  0.00    +0.267 C 
ATOM      3  O   UNL     1      -6.775   9.523  67.417  0.00  0.00    -0.271 OA
ATOM      4  N   UNL     1      -8.808   9.315  67.062  0.00  0.00    -0.172 NA
ATOM      5  C   UNL     1      -9.983  10.040  66.961  0.00  0.00    +0.145 C 
ATOM      6  C   UNL     1     -10.566  10.511  65.857  0.00  0.00    +0.112 C 
ATOM      7  C   UNL     1     -10.477  10.184  68.329  0.00  0.00    +0.282 C 
ATOM      8  O   UNL     1     -11.495  10.934  68.476  0.00  0.00    -0.267 OA
ATOM      9  N   UNL     1     -10.525   8.927  68.635  0.00  0.00    -0.189 NA
ATOM     10  C   UNL     1      -9.794   7.634  68.891  0.00  0.00    +0.210 C 
ATOM     11  C   UNL     1     -10.109   6.699  67.615  0.00  0.00    +0.265 C 
ATOM     12  O   UNL     1     -11.202   6.715  67.112  0.00  0.00    -0.271 OA
ATOM     13  N   UNL     1      -9.243   5.573  67.843  0.00  0.00    -0.202 NA
ATOM     14  C   UNL     1      -8.461   5.301  69.049  0.00  0.00    +0.144 C 
ATOM     15  CA  UNL     1      -7.778   6.753  69.412  0.00  0.00    +0.191 C 
ATOM     16  N   UNL     1      -6.855   6.617  68.128  0.00  0.00    -0.121 NA
ATOM     17  C   UNL     1      -6.635   6.265  70.434  0.00  0.00    +0.261 C 
ATOM     18  O   UNL     1      -6.581   5.066  70.737  0.00  0.00    -0.272 OA
ATOM     19  N   UNL     1      -6.829   7.209  71.445  0.00  0.00    -0.194 NA
ATOM     20  CA  UNL     1      -6.412   8.729  71.305  0.00  0.00    +0.205 C 
ATOM     21  C   UNL     1      -7.808   9.175  70.716  0.00  0.00    +0.264 C 
ATOM     22  O   UNL     1      -8.586   9.096  71.731  0.00  0.00    -0.271 OA
ATOM     23  N   UNL     1      -7.144  10.313  70.272  0.00  0.00    -0.194 NA
ENDROOT
BRANCH  10  24
ATOM     24  C   UNL     1     -11.091   6.831  69.713  0.00  0.00    +0.202 C 
ATOM     25  N   UNL     1     -11.729   8.072  70.408  0.00  0.00    -0.062 NA
ATOM     26  C   UNL     1     -12.530   7.726  71.516  0.00  0.00    +0.473 C 
ATOM     27  N   UNL     1     -13.588   8.552  71.989  0.00  0.00    +0.147 NA
ATOM     28  N   UNL     1     -12.552   6.476  71.835  0.00  0.00    -0.094 NA
ATOM     29  C   UNL     1     -11.290   5.759  71.876  0.00  0.00    +0.223 C 
ATOM     30  C   UNL     1     -10.219   6.434  71.030  0.00  0.00    +0.090 C 
ENDBRANCH  10  24
BRANCH   6  31
ATOM     31  N   UNL     1     -11.597  11.467  66.038  0.00  0.00    -0.157 NA
ATOM     32  C   UNL     1     -11.886  12.254  64.898  0.00  0.00    +0.363 C 
ATOM     33  O   UNL     1     -10.908  12.563  64.156  0.00  0.00    -0.247 OA
ATOM     34  N   UNL     1     -13.112  12.952  64.924  0.00  0.00    -0.068 NA
ENDBRANCH   6  31
BRANCH  20  35
ATOM     35  C   UNL     1      -5.478   8.484  69.977  0.00  0.00    +0.213 C 
ATOM     36  O   UNL     1      -4.232   8.734  70.481  0.00  0.00    -0.218 OA
ENDBRANCH  20  35
BRANCH   1  37
ATOM     37  C   UNL     1      -6.846  11.717  68.456  0.00  0.00    +0.146 C 
BRANCH  37  39
ATOM     38  C   UNL     1      -8.424  13.478  67.939  0.00  0.00    +0.243 C 
ATOM     39  N   UNL     1      -7.193  13.073  68.532  0.00  0.00    -0.203 NA
ATOM     40  O   UNL     1      -8.565  13.201  66.731  0.00  0.00    -0.273 OA
BRANCH  38  41
ATOM     41  C   UNL     1      -9.391  14.403  68.586  0.00  0.00    +0.106 C 
BRANCH  41  42
ATOM     42  C   UNL     1     -10.631  14.484  67.512  0.00  0.00    +0.101 C 
ATOM     43  N   UNL     1     -11.707  14.466  68.660  0.00  0.00    -0.132 NA
BRANCH  42  44
ATOM     44  C   UNL     1     -10.613  16.125  67.484  0.00  0.00    +0.021 C 
BRANCH  44  45
ATOM     45  C   UNL     1      -9.966  16.417  66.161  0.00  0.00    +0.022 C 
BRANCH  45  47
ATOM     46  N   UNL     1     -11.285  16.710  64.319  0.00  0.00    -0.131 NA
ATOM     47  C   UNL     1     -10.852  15.967  65.017  0.00  0.00    +0.109 C 
ENDBRANCH  45  47
ENDBRANCH  44  45
ENDBRANCH  42  44
ENDBRANCH  41  42
ENDBRANCH  38  41
ENDBRANCH  37  39
ENDBRANCH   1  37
TORSDOF 10
ENDMDL
MODEL 5
REMARK VINA RESULT:      -7.4      3.274      6.371
REMARK  Name = 
REMARK  10 active torsions:
REMARK  status: ('A' for Active; 'I' for Inactive)
REMARK    1  A    between atoms: C_2  and  C_3
REMARK    2  A    between atoms: C_3  and  C_4
REMARK    3  A    between atoms: C_4  and  C_5
REMARK    4  A    between atoms: C_5  and  C_7
REMARK    5  A    between atoms: C_7  and  C_8
REMARK    6  A    between atoms: N_10  and  C_11
REMARK    7  A    between atoms: C_11  and  C_12
REMARK    8  A    between atoms: CA_16  and  C_17
REMARK    9  A    between atoms: C_28  and  C_29
REMARK   10  A    between atoms: C_40  and  N_41
REMARK                            x       y       z     vdW  Elec       q    Type
REMARK                         _______ _______ _______ _____ _____    ______ ____
ROOT
ATOM      1  C   UNL     1      -6.191  14.465  67.700  0.00  0.00    +0.195 C 
ATOM      2  C   UNL     1      -6.669  15.327  68.963  0.00  0.00    +0.267 C 
ATOM      3  O   UNL     1      -6.538  14.834  70.128  0.00  0.00    -0.271 OA
ATOM      4  N   UNL     1      -7.872  15.998  69.047  0.00  0.00    -0.172 NA
ATOM      5  C   UNL     1      -8.773  15.945  67.998  0.00  0.00    +0.145 C 
ATOM      6  C   UNL     1     -10.093  15.760  68.057  0.00  0.00    +0.112 C 
ATOM      7  C   UNL     1      -7.981  16.147  66.787  0.00  0.00    +0.282 C 
ATOM      8  O   UNL     1      -8.605  16.009  65.685  0.00  0.00    -0.267 OA
ATOM      9  N   UNL     1      -7.442  17.279  67.111  0.00  0.00    -0.189 NA
ATOM     10  C   UNL     1      -6.513  18.053  68.010  0.00  0.00    +0.210 C 
ATOM     11  C   UNL     1      -7.469  18.943  68.956  0.00  0.00    +0.265 C 
ATOM     12  O   UNL     1      -8.467  19.440  68.506  0.00  0.00    -0.271 OA
ATOM     13  N   UNL     1      -6.530  19.505  69.892  0.00  0.00    -0.202 NA
ATOM     14  C   UNL     1      -5.071  19.425  69.822  0.00  0.00    +0.144 C 
ATOM     15  CA  UNL     1      -4.780  17.850  69.447  0.00  0.00    +0.191 C 
ATOM     16  N   UNL     1      -5.274  17.434  70.897  0.00  0.00    -0.121 NA
ATOM     17  C   UNL     1      -3.218  17.769  69.824  0.00  0.00    +0.261 C 
ATOM     18  O   UNL     1      -2.641  18.799  70.195  0.00  0.00    -0.272 OA
ATOM     19  N   UNL     1      -2.752  17.107  68.686  0.00  0.00    -0.194 NA
ATOM     20  CA  UNL     1      -3.025  15.574  68.401  0.00  0.00    +0.205 C 
ATOM     21  C   UNL     1      -4.367  15.843  67.611  0.00  0.00    +0.264 C 
ATOM     22  O   UNL     1      -3.954  16.357  66.513  0.00  0.00    -0.271 OA
ATOM     23  N   UNL     1      -4.652  14.501  67.839  0.00  0.00    -0.194 NA
ENDROOT
BRANCH  10  24
ATOM     24  C   UNL     1      -6.353  19.440  66.983  0.00  0.00    +0.202 C 
ATOM     25  N   UNL     1      -6.263  18.705  65.612  0.00  0.00    -0.062 NA
ATOM     26  C   UNL     1      -5.675  19.498  64.604  0.00  0.00    +0.473 C 
ATOM     27  N   UNL     1      -5.928  19.293  63.219  0.00  0.00    +0.147 NA
ATOM     28  N   UNL     1      -5.235  20.652  64.973  0.00  0.00    -0.094 NA
ATOM     29  C   UNL     1      -4.459  20.728  66.197  0.00  0.00    +0.223 C 
ATOM     30  C   UNL     1      -4.734  19.553  67.125  0.00  0.00    +0.090 C 
ENDBRANCH  10  24
BRANCH   6  31
ATOM     31  N   UNL     1     -10.749  15.452  66.839  0.00  0.00    -0.157 NA
ATOM     32  C   UNL     1     -11.874  14.603  66.967  0.00  0.00    +0.363 C 
ATOM     33  O   UNL     1     -11.811  13.703  67.855  0.00  0.00    -0.247 OA
ATOM     34  N   UNL     1     -12.745  14.561  65.857  0.00  0.00    -0.068 NA
ENDBRANCH   6  31
BRANCH  20  35
ATOM     35  C   UNL     1      -3.522  15.245  69.931  0.00  0.00    +0.213 C 
ATOM     36  O   UNL     1      -2.488  14.471  70.383  0.00  0.00    -0.218 OA
ENDBRANCH  20  35
BRANCH   1  37
ATOM     37  C   UNL     1      -6.302  13.029  68.521  0.00  0.00    +0.146 C 
BRANCH  37  39
ATOM     38  C   UNL     1      -8.414  12.289  67.598  0.00  0.00    +0.243 C 
ATOM     39  N   UNL     1      -7.010  12.099  67.747  0.00  0.00    -0.203 NA
ATOM     40  O   UNL     1      -9.070  12.356  68.657  0.00  0.00    -0.273 OA
BRANCH  38  41
ATOM     41  C   UNL     1      -9.137  12.152  66.307  0.00  0.00    +0.106 C 
BRANCH  41  42
ATOM     42  C   UNL     1      -9.251  10.526  66.095  0.00  0.00    +0.101 C 
ATOM     43  N   UNL     1     -10.701  10.488  66.705  0.00  0.00    -0.132 NA
BRANCH  42  44
ATOM     44  C   UNL     1      -9.841  10.680  64.570  0.00  0.00    +0.021 C 
BRANCH  44  45
ATOM     45  C   UNL     1     -10.953  11.671  64.755  0.00  0.00    +0.022 C 
BRANCH  45  47
ATOM     46  N   UNL     1     -12.793  12.051  63.454  0.00  0.00    -0.131 NA
ATOM     47  C   UNL     1     -11.695  11.896  63.453  0.00  0.00    +0.109 C 
ENDBRANCH  45  47
ENDBRANCH  44  45
ENDBRANCH  42  44
ENDBRANCH  41  42
ENDBRANCH  38  41
ENDBRANCH  37  39
ENDBRANCH   1  37
TORSDOF 10
ENDMDL
MODEL 6
REMARK VINA RESULT:      -7.3      6.991     11.621
REMARK  Name = 
REMARK  10 active torsions:
REMARK  status: ('A' for Active; 'I' for Inactive)
REMARK    1  A    between atoms: C_2  and  C_3
REMARK    2  A    between atoms: C_3  and  C_4
REMARK    3  A    between atoms: C_4  and  C_5
REMARK    4  A    between atoms: C_5  and  C_7
REMARK    5  A    between atoms: C_7  and  C_8
REMARK    6  A    between atoms: N_10  and  C_11
REMARK    7  A    between atoms: C_11  and  C_12
REMARK    8  A    between atoms: CA_16  and  C_17
REMARK    9  A    between atoms: C_28  and  C_29
REMARK   10  A    between atoms: C_40  and  N_41
REMARK                            x       y       z     vdW  Elec       q    Type
REMARK                         _______ _______ _______ _____ _____    ______ ____
ROOT
ATOM      1  C   UNL     1     -10.953   8.932  69.706  0.00  0.00    +0.195 C 
ATOM      2  C   UNL     1      -9.376   8.970  69.988  0.00  0.00    +0.267 C 
ATOM      3  O   UNL     1      -8.953   9.554  71.036  0.00  0.00    -0.271 OA
ATOM      4  N   UNL     1      -8.417   9.291  69.049  0.00  0.00    -0.172 NA
ATOM      5  C   UNL     1      -8.791   9.625  67.759  0.00  0.00    +0.145 C 
ATOM      6  C   UNL     1      -8.334  10.626  67.005  0.00  0.00    +0.112 C 
ATOM      7  C   UNL     1      -9.798   8.640  67.372  0.00  0.00    +0.282 C 
ATOM      8  O   UNL     1     -10.371   8.841  66.253  0.00  0.00    -0.267 OA
ATOM      9  N   UNL     1      -9.094   7.573  67.578  0.00  0.00    -0.189 NA
ATOM     10  C   UNL     1      -8.384   6.665  68.549  0.00  0.00    +0.210 C 
ATOM     11  C   UNL     1      -6.810   6.906  68.294  0.00  0.00    +0.265 C 
ATOM     12  O   UNL     1      -6.400   7.074  67.176  0.00  0.00    -0.271 OA
ATOM     13  N   UNL     1      -6.211   6.154  69.366  0.00  0.00    -0.202 NA
ATOM     14  C   UNL     1      -6.896   5.249  70.288  0.00  0.00    +0.144 C 
ATOM     15  CA  UNL     1      -8.244   6.082  70.729  0.00  0.00    +0.191 C 
ATOM     16  N   UNL     1      -7.330   7.092  71.543  0.00  0.00    -0.121 NA
ATOM     17  C   UNL     1      -8.672   5.234  72.028  0.00  0.00    +0.261 C 
ATOM     18  O   UNL     1      -8.015   4.227  72.324  0.00  0.00    -0.272 OA
ATOM     19  N   UNL     1     -10.035   5.095  71.759  0.00  0.00    -0.194 NA
ATOM     20  CA  UNL     1     -11.070   6.286  71.882  0.00  0.00    +0.205 C 
ATOM     21  C   UNL     1     -10.891   6.746  70.381  0.00  0.00    +0.264 C 
ATOM     22  O   UNL     1     -11.476   5.814  69.725  0.00  0.00    -0.271 OA
ATOM     23  N   UNL     1     -11.458   7.949  70.789  0.00  0.00    -0.194 NA
ENDROOT
BRANCH  10  24
ATOM     24  C   UNL     1      -8.275   5.294  67.496  0.00  0.00    +0.202 C 
ATOM     25  N   UNL     1      -9.597   5.508  66.698  0.00  0.00    -0.062 NA
ATOM     26  C   UNL     1     -10.052   4.331  66.069  0.00  0.00    +0.473 C 
ATOM     27  N   UNL     1     -10.889   4.348  64.918  0.00  0.00    +0.147 NA
ATOM     28  N   UNL     1      -9.375   3.260  66.307  0.00  0.00    -0.094 NA
ATOM     29  C   UNL     1      -8.988   2.986  67.678  0.00  0.00    +0.223 C 
ATOM     30  C   UNL     1      -8.971   4.247  68.533  0.00  0.00    +0.090 C 
ENDBRANCH  10  24
BRANCH   6  31
ATOM     31  N   UNL     1      -9.079  10.938  65.840  0.00  0.00    -0.157 NA
ATOM     32  C   UNL     1      -9.739  12.189  65.872  0.00  0.00    +0.363 C 
ATOM     33  O   UNL     1     -10.198  12.562  66.992  0.00  0.00    -0.247 OA
ATOM     34  N   UNL     1     -10.186  12.684  64.628  0.00  0.00    -0.068 NA
ENDBRANCH   6  31
BRANCH  20  35
ATOM     35  C   UNL     1     -10.047   7.259  72.722  0.00  0.00    +0.213 C 
ATOM     36  O   UNL     1     -10.621   7.237  73.963  0.00  0.00    -0.218 OA
ENDBRANCH  20  35
BRANCH   1  37
ATOM     37  C   UNL     1     -11.250  10.251  70.666  0.00  0.00    +0.146 C 
BRANCH  37  39
ATOM     38  C   UNL     1     -12.402  12.379  70.620  0.00  0.00    +0.243 C 
ATOM     39  N   UNL     1     -11.943  11.221  69.929  0.00  0.00    -0.203 NA
ATOM     40  O   UNL     1     -13.139  12.170  71.605  0.00  0.00    -0.273 OA
BRANCH  38  41
ATOM     41  C   UNL     1     -12.271  13.764  70.096  0.00  0.00    +0.106 C 
BRANCH  41  42
ATOM     42  C   UNL     1     -11.770  14.628  71.401  0.00  0.00    +0.101 C 
ATOM     43  N   UNL     1     -10.940  15.617  70.503  0.00  0.00    -0.132 NA
BRANCH  42  44
ATOM     44  C   UNL     1     -13.084  15.612  71.361  0.00  0.00    +0.021 C 
BRANCH  44  45
ATOM     45  C   UNL     1     -13.637  15.465  72.749  0.00  0.00    +0.022 C 
BRANCH  45  47
ATOM     46  N   UNL     1     -12.562  16.307  74.581  0.00  0.00    -0.131 NA
ATOM     47  C   UNL     1     -12.531  15.540  73.781  0.00  0.00    +0.109 C 
ENDBRANCH  45  47
ENDBRANCH  44  45
ENDBRANCH  42  44
ENDBRANCH  41  42
ENDBRANCH  38  41
ENDBRANCH  37  39
ENDBRANCH   1  37
TORSDOF 10
ENDMDL
MODEL 7
REMARK VINA RESULT:      -7.0      7.333     12.108
REMARK  Name = 
REMARK  10 active torsions:
REMARK  status: ('A' for Active; 'I' for Inactive)
REMARK    1  A    between atoms: C_2  and  C_3
REMARK    2  A    between atoms: C_3  and  C_4
REMARK    3  A    between atoms: C_4  and  C_5
REMARK    4  A    between atoms: C_5  and  C_7
REMARK    5  A    between atoms: C_7  and  C_8
REMARK    6  A    between atoms: N_10  and  C_11
REMARK    7  A    between atoms: C_11  and  C_12
REMARK    8  A    between atoms: CA_16  and  C_17
REMARK    9  A    between atoms: C_28  and  C_29
REMARK   10  A    between atoms: C_40  and  N_41
REMARK                            x       y       z     vdW  Elec       q    Type
REMARK                         _______ _______ _______ _____ _____    ______ ____
ROOT
ATOM      1  C   UNL     1     -10.580   8.901  69.359  0.00  0.00    +0.195 C 
ATOM      2  C   UNL     1      -9.052   8.802  69.831  0.00  0.00    +0.267 C 
ATOM      3  O   UNL     1      -8.691   9.429  70.877  0.00  0.00    -0.271 OA
ATOM      4  N   UNL     1      -7.961   8.942  68.997  0.00  0.00    -0.172 NA
ATOM      5  C   UNL     1      -8.144   9.201  67.649  0.00  0.00    +0.145 C 
ATOM      6  C   UNL     1      -7.495  10.082  66.886  0.00  0.00    +0.112 C 
ATOM      7  C   UNL     1      -9.203   8.294  67.214  0.00  0.00    +0.282 C 
ATOM      8  O   UNL     1      -9.618   8.455  66.020  0.00  0.00    -0.267 OA
ATOM      9  N   UNL     1      -8.651   7.182  67.583  0.00  0.00    -0.189 NA
ATOM     10  C   UNL     1      -8.163   6.294  68.698  0.00  0.00    +0.210 C 
ATOM     11  C   UNL     1      -6.553   6.350  68.623  0.00  0.00    +0.265 C 
ATOM     12  O   UNL     1      -6.001   6.379  67.555  0.00  0.00    -0.271 OA
ATOM     13  N   UNL     1      -6.169   5.636  69.812  0.00  0.00    -0.202 NA
ATOM     14  C   UNL     1      -7.052   4.888  70.707  0.00  0.00    +0.144 C 
ATOM     15  CA  UNL     1      -8.342   5.889  70.915  0.00  0.00    +0.191 C 
ATOM     16  N   UNL     1      -7.421   6.867  71.760  0.00  0.00    -0.121 NA
ATOM     17  C   UNL     1      -9.008   5.203  72.209  0.00  0.00    +0.261 C 
ATOM     18  O   UNL     1      -8.506   4.164  72.657  0.00  0.00    -0.272 OA
ATOM     19  N   UNL     1     -10.338   5.181  71.784  0.00  0.00    -0.194 NA
ATOM     20  CA  UNL     1     -11.241   6.478  71.691  0.00  0.00    +0.205 C 
ATOM     21  C   UNL     1     -10.840   6.787  70.194  0.00  0.00    +0.264 C 
ATOM     22  O   UNL     1     -11.445   5.866  69.541  0.00  0.00    -0.271 OA
ATOM     23  N   UNL     1     -11.313   8.071  70.439  0.00  0.00    -0.194 NA
ENDROOT
BRANCH  10  24
ATOM     24  C   UNL     1      -8.087   4.833  67.769  0.00  0.00    +0.202 C 
ATOM     25  N   UNL     1      -9.197   5.162  66.727  0.00  0.00    -0.062 NA
ATOM     26  C   UNL     1      -9.714   4.011  66.097  0.00  0.00    +0.473 C 
ATOM     27  N   UNL     1     -10.322   4.045  64.810  0.00  0.00    +0.147 NA
ATOM     28  N   UNL     1      -9.265   2.879  66.521  0.00  0.00    -0.094 NA
ATOM     29  C   UNL     1      -9.172   2.676  67.956  0.00  0.00    +0.223 C 
ATOM     30  C   UNL     1      -9.109   3.992  68.719  0.00  0.00    +0.090 C 
ENDBRANCH  10  24
BRANCH   6  31
ATOM     31  N   UNL     1      -8.060  10.366  65.618  0.00  0.00    -0.157 NA
ATOM     32  C   UNL     1      -7.195  10.155  64.519  0.00  0.00    +0.363 C 
ATOM     33  O   UNL     1      -5.970  10.419  64.699  0.00  0.00    -0.247 OA
ATOM     34  N   UNL     1      -7.812  10.085  63.251  0.00  0.00    -0.068 NA
ENDBRANCH   6  31
BRANCH  20  35
ATOM     35  C   UNL     1     -10.220   7.410  72.578  0.00  0.00    +0.213 C 
ATOM     36  O   UNL     1     -10.900   7.493  73.761  0.00  0.00    -0.218 OA
ENDBRANCH  20  35
BRANCH   1  37
ATOM     37  C   UNL     1     -10.837  10.321  70.175  0.00  0.00    +0.146 C 
BRANCH  37  39
ATOM     38  C   UNL     1     -10.867  11.684  68.175  0.00  0.00    +0.243 C 
ATOM     39  N   UNL     1     -11.527  11.219  69.349  0.00  0.00    -0.203 NA
ATOM     40  O   UNL     1      -9.760  12.231  68.352  0.00  0.00    -0.273 OA
BRANCH  38  41
ATOM     41  C   UNL     1     -11.517  11.783  66.842  0.00  0.00    +0.106 C 
BRANCH  41  42
ATOM     42  C   UNL     1     -10.789  13.083  66.150  0.00  0.00    +0.101 C 
ATOM     43  N   UNL     1     -10.785  12.401  64.732  0.00  0.00    -0.132 NA
BRANCH  42  44
ATOM     44  C   UNL     1     -12.220  13.829  65.844  0.00  0.00    +0.021 C 
BRANCH  44  45
ATOM     45  C   UNL     1     -11.924  14.587  64.583  0.00  0.00    +0.022 C 
BRANCH  45  47
ATOM     46  N   UNL     1     -11.261  16.760  64.341  0.00  0.00    -0.131 NA
ATOM     47  C   UNL     1     -11.074  15.806  64.874  0.00  0.00    +0.109 C 
ENDBRANCH  45  47
ENDBRANCH  44  45
ENDBRANCH  42  44
ENDBRANCH  41  42
ENDBRANCH  38  41
ENDBRANCH  37  39
ENDBRANCH   1  37
TORSDOF 10
ENDMDL
MODEL 8
REMARK VINA RESULT:      -7.0      5.718      9.663
REMARK  Name = 
REMARK  10 active torsions:
REMARK  status: ('A' for Active; 'I' for Inactive)
REMARK    1  A    between atoms: C_2  and  C_3
REMARK    2  A    between atoms: C_3  and  C_4
REMARK    3  A    between atoms: C_4  and  C_5
REMARK    4  A    between atoms: C_5  and  C_7
REMARK    5  A    between atoms: C_7  and  C_8
REMARK    6  A    between atoms: N_10  and  C_11
REMARK    7  A    between atoms: C_11  and  C_12
REMARK    8  A    between atoms: CA_16  and  C_17
REMARK    9  A    between atoms: C_28  and  C_29
REMARK   10  A    between atoms: C_40  and  N_41
REMARK                            x       y       z     vdW  Elec       q    Type
REMARK                         _______ _______ _______ _____ _____    ______ ____
ROOT
ATOM      1  C   UNL     1     -10.514  10.240  68.702  0.00  0.00    +0.195 C 
ATOM      2  C   UNL     1      -8.962  10.215  69.098  0.00  0.00    +0.267 C 
ATOM      3  O   UNL     1      -8.638   9.937  70.296  0.00  0.00    -0.271 OA
ATOM      4  N   UNL     1      -8.046  11.187  68.749  0.00  0.00    -0.172 NA
ATOM      5  C   UNL     1      -8.447  12.291  68.017  0.00  0.00    +0.145 C 
ATOM      6  C   UNL     1      -8.126  13.570  68.217  0.00  0.00    +0.112 C 
ATOM      7  C   UNL     1      -9.302  11.769  66.953  0.00  0.00    +0.282 C 
ATOM      8  O   UNL     1      -9.884  12.641  66.230  0.00  0.00    -0.267 OA
ATOM      9  N   UNL     1      -8.458  10.932  66.439  0.00  0.00    -0.189 NA
ATOM     10  C   UNL     1      -7.639   9.675  66.583  0.00  0.00    +0.210 C 
ATOM     11  C   UNL     1      -6.111  10.169  66.734  0.00  0.00    +0.265 C 
ATOM     12  O   UNL     1      -5.716  11.106  66.093  0.00  0.00    -0.271 OA
ATOM     13  N   UNL     1      -5.426   8.942  67.046  0.00  0.00    -0.202 NA
ATOM     14  C   UNL     1      -5.988   7.592  67.009  0.00  0.00    +0.144 C 
ATOM     15  CA  UNL     1      -7.446   7.751  67.755  0.00  0.00    +0.191 C 
ATOM     16  N   UNL     1      -6.692   7.984  69.133  0.00  0.00    -0.121 NA
ATOM     17  C   UNL     1      -7.766   6.203  68.054  0.00  0.00    +0.261 C 
ATOM     18  O   UNL     1      -6.978   5.342  67.641  0.00  0.00    -0.272 OA
ATOM     19  N   UNL     1      -9.093   6.167  67.620  0.00  0.00    -0.194 NA
ATOM     20  CA  UNL     1     -10.286   6.832  68.421  0.00  0.00    +0.205 C 
ATOM     21  C   UNL     1     -10.155   8.223  67.683  0.00  0.00    +0.264 C 
ATOM     22  O   UNL     1     -10.595   7.965  66.508  0.00  0.00    -0.271 OA
ATOM     23  N   UNL     1     -10.890   8.741  68.745  0.00  0.00    -0.194 NA
ENDROOT
BRANCH  10  24
ATOM     24  C   UNL     1      -7.326   9.447  64.894  0.00  0.00    +0.202 C 
ATOM     25  N   UNL     1      -8.573  10.190  64.325  0.00  0.00    -0.062 NA
ATOM     26  C   UNL     1      -8.877   9.810  63.001  0.00  0.00    +0.473 C 
ATOM     27  N   UNL     1      -9.592  10.653  62.104  0.00  0.00    +0.147 NA
ATOM     28  N   UNL     1      -8.152   8.871  62.496  0.00  0.00    -0.094 NA
ATOM     29  C   UNL     1      -7.886   7.700  63.312  0.00  0.00    +0.223 C 
ATOM     30  C   UNL     1      -8.046   7.988  64.799  0.00  0.00    +0.090 C 
ENDBRANCH  10  24
BRANCH   6  31
ATOM     31  N   UNL     1      -8.892  14.536  67.519  0.00  0.00    -0.157 NA
ATOM     32  C   UNL     1      -9.368  15.606  68.313  0.00  0.00    +0.363 C 
ATOM     33  O   UNL     1      -9.698  15.329  69.504  0.00  0.00    -0.247 OA
ATOM     34  N   UNL     1      -9.820  16.744  67.611  0.00  0.00    -0.068 NA
ENDBRANCH   6  31
BRANCH  20  35
ATOM     35  C   UNL     1      -9.420   7.030  69.802  0.00  0.00    +0.213 C 
ATOM     36  O   UNL     1     -10.056   6.157  70.640  0.00  0.00    -0.218 OA
ENDBRANCH  20  35
BRANCH   1  37
ATOM     37  C   UNL     1     -11.005  10.480  70.267  0.00  0.00    +0.146 C 
BRANCH  37  39
ATOM     38  C   UNL     1     -12.833  11.509  71.474  0.00  0.00    +0.243 C 
ATOM     39  N   UNL     1     -12.036  11.429  70.297  0.00  0.00    -0.203 NA
ATOM     40  O   UNL     1     -13.393  10.451  71.826  0.00  0.00    -0.273 OA
BRANCH  38  41
ATOM     41  C   UNL     1     -13.228  12.786  72.124  0.00  0.00    +0.106 C 
BRANCH  41  42
ATOM     42  C   UNL     1     -12.882  13.923  70.990  0.00  0.00    +0.101 C 
ATOM     43  N   UNL     1     -14.197  14.726  71.306  0.00  0.00    -0.132 NA
BRANCH  42  44
ATOM     44  C   UNL     1     -12.011  14.833  72.044  0.00  0.00    +0.021 C 
BRANCH  44  45
ATOM     45  C   UNL     1     -13.057  15.281  73.022  0.00  0.00    +0.022 C 
BRANCH  45  47
ATOM     46  N   UNL     1     -12.437  16.598  74.783  0.00  0.00    -0.131 NA
ATOM     47  C   UNL     1     -12.441  15.567  74.376  0.00  0.00    +0.109 C 
ENDBRANCH  45  47
ENDBRANCH  44  45
ENDBRANCH  42  44
ENDBRANCH  41  42
ENDBRANCH  38  41
ENDBRANCH  37  39
ENDBRANCH   1  37
TORSDOF 10
ENDMDL
MODEL 9
REMARK VINA RESULT:      -6.9      2.991      5.865
REMARK  Name = 
REMARK  10 active torsions:
REMARK  status: ('A' for Active; 'I' for Inactive)
REMARK    1  A    between atoms: C_2  and  C_3
REMARK    2  A    between atoms: C_3  and  C_4
REMARK    3  A    between atoms: C_4  and  C_5
REMARK    4  A    between atoms: C_5  and  C_7
REMARK    5  A    between atoms: C_7  and  C_8
REMARK    6  A    between atoms: N_10  and  C_11
REMARK    7  A    between atoms: C_11  and  C_12
REMARK    8  A    between atoms: CA_16  and  C_17
REMARK    9  A    between atoms: C_28  and  C_29
REMARK   10  A    between atoms: C_40  and  N_41
REMARK                            x       y       z     vdW  Elec       q    Type
REMARK                         _______ _______ _______ _____ _____    ______ ____
ROOT
ATOM      1  C   UNL     1      -6.262  14.527  67.719  0.00  0.00    +0.195 C 
ATOM      2  C   UNL     1      -6.666  15.419  68.987  0.00  0.00    +0.267 C 
ATOM      3  O   UNL     1      -6.560  14.916  70.151  0.00  0.00    -0.271 OA
ATOM      4  N   UNL     1      -7.818  16.173  69.083  0.00  0.00    -0.172 NA
ATOM      5  C   UNL     1      -8.730  16.185  68.042  0.00  0.00    +0.145 C 
ATOM      6  C   UNL     1     -10.059  16.093  68.113  0.00  0.00    +0.112 C 
ATOM      7  C   UNL     1      -7.937  16.332  66.824  0.00  0.00    +0.282 C 
ATOM      8  O   UNL     1      -8.579  16.241  65.728  0.00  0.00    -0.267 OA
ATOM      9  N   UNL     1      -7.317  17.423  67.144  0.00  0.00    -0.189 NA
ATOM     10  C   UNL     1      -6.328  18.129  68.035  0.00  0.00    +0.210 C 
ATOM     11  C   UNL     1      -7.210  19.082  68.991  0.00  0.00    +0.265 C 
ATOM     12  O   UNL     1      -8.175  19.649  68.551  0.00  0.00    -0.271 OA
ATOM     13  N   UNL     1      -6.225  19.575  69.919  0.00  0.00    -0.202 NA
ATOM     14  C   UNL     1      -4.777  19.393  69.835  0.00  0.00    +0.144 C 
ATOM     15  CA  UNL     1      -4.600  17.802  69.456  0.00  0.00    +0.191 C 
ATOM     16  N   UNL     1      -5.108  17.420  70.910  0.00  0.00    -0.121 NA
ATOM     17  C   UNL     1      -3.044  17.610  69.819  0.00  0.00    +0.261 C 
ATOM     18  O   UNL     1      -2.392  18.597  70.185  0.00  0.00    -0.272 OA
ATOM     19  N   UNL     1      -2.637  16.919  68.675  0.00  0.00    -0.194 NA
ATOM     20  CA  UNL     1      -3.019  15.410  68.392  0.00  0.00    +0.205 C 
ATOM     21  C   UNL     1      -4.346  15.774  67.615  0.00  0.00    +0.264 C 
ATOM     22  O   UNL     1      -3.908  16.259  66.513  0.00  0.00    -0.271 OA
ATOM     23  N   UNL     1      -4.722  14.455  67.844  0.00  0.00    -0.194 NA
ENDROOT
BRANCH  10  24
ATOM     24  C   UNL     1      -6.080  19.503  67.009  0.00  0.00    +0.202 C 
ATOM     25  N   UNL     1      -6.156  18.779  65.630  0.00  0.00    -0.062 NA
ATOM     26  C   UNL     1      -5.548  19.516  64.592  0.00  0.00    +0.473 C 
ATOM     27  N   UNL     1      -5.907  19.357  63.224  0.00  0.00    +0.147 NA
ATOM     28  N   UNL     1      -4.961  20.610  64.939  0.00  0.00    -0.094 NA
ATOM     29  C   UNL     1      -4.108  20.586  66.112  0.00  0.00    +0.223 C 
ATOM     30  C   UNL     1      -4.453  19.436  67.049  0.00  0.00    +0.090 C 
ENDBRANCH  10  24
BRANCH   6  31
ATOM     31  N   UNL     1     -10.746  15.834  66.901  0.00  0.00    -0.157 NA
ATOM     32  C   UNL     1     -11.423  14.592  66.854  0.00  0.00    +0.363 C 
ATOM     33  O   UNL     1     -10.870  13.619  67.446  0.00  0.00    -0.247 OA
ATOM     34  N   UNL     1     -12.388  14.452  65.833  0.00  0.00    -0.068 NA
ENDBRANCH   6  31
BRANCH  20  35
ATOM     35  C   UNL     1      -3.523  15.114  69.926  0.00  0.00    +0.213 C 
ATOM     36  O   UNL     1      -2.553  14.255  70.362  0.00  0.00    -0.218 OA
ENDBRANCH  20  35
BRANCH   1  37
ATOM     37  C   UNL     1      -6.465  13.101  68.539  0.00  0.00    +0.146 C 
BRANCH  37  39
ATOM     38  C   UNL     1      -7.908  11.164  68.380  0.00  0.00    +0.243 C 
ATOM     39  N   UNL     1      -7.732  12.572  68.254  0.00  0.00    -0.203 NA
ATOM     40  O   UNL     1      -7.131  10.456  67.708  0.00  0.00    -0.273 OA
BRANCH  38  41
ATOM     41  C   UNL     1      -9.084  10.530  69.031  0.00  0.00    +0.106 C 
BRANCH  41  42
ATOM     42  C   UNL     1     -10.154  10.336  67.800  0.00  0.00    +0.101 C 
ATOM     43  N   UNL     1     -10.169   8.773  67.980  0.00  0.00    -0.132 NA
BRANCH  42  44
ATOM     44  C   UNL     1     -11.453  10.514  68.788  0.00  0.00    +0.021 C 
BRANCH  44  45
ATOM     45  C   UNL     1     -10.984   9.863  70.056  0.00  0.00    +0.022 C 
BRANCH  45  47
ATOM     46  N   UNL     1     -12.729  10.863  71.143  0.00  0.00    -0.131 NA
ATOM     47  C   UNL     1     -12.020  10.010  71.153  0.00  0.00    +0.109 C 
ENDBRANCH  45  47
ENDBRANCH  44  45
ENDBRANCH  42  44
ENDBRANCH  41  42
ENDBRANCH  38  41
ENDBRANCH  37  39
ENDBRANCH   1  37
TORSDOF 10
ENDMDL
