MODEL 1
REMARK VINA RESULT:      -7.4      0.000      0.000
REMARK  Name = 
REMARK  1 active torsions:
REMARK  status: ('A' for Active; 'I' for Inactive)
REMARK    1  A    between atoms: N_14  and  C_15
REMARK                            x       y       z     vdW  Elec       q    Type
REMARK                         _______ _______ _______ _____ _____    ______ ____
ROOT
ATOM      1  O   UNL     1     -11.802  11.538  70.059  0.00  0.00    -0.270 OA
ATOM      2  C   UNL     1     -11.886  12.159  69.311  0.00  0.00    +0.249 C 
ATOM      3  N   UNL     1     -12.299  13.508  69.587  0.00  0.00    -0.276 N 
ATOM      4  C   UNL     1     -11.791  14.575  68.787  0.00  0.00    +0.098 C 
ATOM      5  C   UNL     1     -11.945  14.299  67.199  0.00  0.00    +0.042 C 
ATOM      6  C   UNL     1     -10.573  15.156  66.923  0.00  0.00    +0.006 C 
ATOM      7  C   UNL     1     -10.214  15.018  65.500  0.00  0.00    +0.005 C 
ATOM      8  C   UNL     1     -10.506  13.694  64.873  0.00  0.00    +0.026 C 
ATOM      9  C   UNL     1     -10.653  12.636  65.886  0.00  0.00    -0.026 A 
ATOM     10  C   UNL     1      -9.992  11.433  65.666  0.00  0.00    -0.005 A 
ATOM     11  C   UNL     1     -10.298  10.406  66.542  0.00  0.00    -0.000 A 
ATOM     12  C   UNL     1     -11.067  10.633  67.654  0.00  0.00    +0.004 A 
ATOM     13  C   UNL     1     -11.123  12.920  67.168  0.00  0.00    -0.020 A 
ATOM     14  C   UNL     1     -11.653  11.875  67.885  0.00  0.00    +0.049 A 
ENDROOT
BRANCH   3  15
ATOM     15  C   UNL     1     -11.835  14.043  71.006  0.00  0.00    +0.092 C 
ATOM     16  C   UNL     1     -12.534  15.511  70.802  0.00  0.00    +0.022 C 
ATOM     17  C   UNL     1     -13.983  15.412  70.994  0.00  0.00    +0.019 C 
ATOM     18  C   UNL     1     -14.254  15.320  72.494  0.00  0.00    +0.072 C 
ATOM     19  N   UNL     1     -13.249  14.368  72.973  0.00  0.00    -0.271 NA
ATOM     20  C   UNL     1     -12.043  15.170  73.159  0.00  0.00    +0.072 C 
ATOM     21  C   UNL     1     -11.956  16.202  72.039  0.00  0.00    +0.019 C 
ATOM     22  C   UNL     1     -13.095  13.431  71.862  0.00  0.00    +0.092 C 
ENDBRANCH   3  15
TORSDOF 1
ENDMDL
MODEL 2
REMARK VINA RESULT:      -7.2      3.134      4.883
REMARK  Name = 
REMARK  1 active torsions:
REMARK  status: ('A' for Active; 'I' for Inactive)
REMARK    1  A    between atoms: N_14  and  C_15
REMARK                            x       y       z     vdW  Elec       q    Type
REMARK                         _______ _______ _______ _____ _____    ______ ____
ROOT
ATOM      1  O   UNL     1     -10.534  15.765  69.618  0.00  0.00    -0.270 OA
ATOM      2  C   UNL     1     -10.835  15.528  68.721  0.00  0.00    +0.249 C 
ATOM      3  N   UNL     1     -10.589  16.457  67.652  0.00  0.00    -0.276 N 
ATOM      4  C   UNL     1     -10.331  15.963  66.338  0.00  0.00    +0.098 C 
ATOM      5  C   UNL     1     -11.432  14.883  65.845  0.00  0.00    +0.042 C 
ATOM      6  C   UNL     1     -10.278  14.117  64.964  0.00  0.00    +0.006 C 
ATOM      7  C   UNL     1     -10.850  12.869  64.429  0.00  0.00    +0.005 C 
ATOM      8  C   UNL     1     -11.828  12.162  65.309  0.00  0.00    +0.026 C 
ATOM      9  C   UNL     1     -11.686  12.573  66.716  0.00  0.00    -0.026 A 
ATOM     10  C   UNL     1     -11.665  11.574  67.683  0.00  0.00    -0.005 A 
ATOM     11  C   UNL     1     -11.713  12.005  68.997  0.00  0.00    -0.000 A 
ATOM     12  C   UNL     1     -11.605  13.336  69.308  0.00  0.00    +0.004 A 
ATOM     13  C   UNL     1     -11.234  13.847  67.056  0.00  0.00    -0.020 A 
ATOM     14  C   UNL     1     -11.549  14.307  68.312  0.00  0.00    +0.049 A 
ENDROOT
BRANCH   3  15
ATOM     15  C   UNL     1      -9.268  17.315  67.838  0.00  0.00    +0.092 C 
ATOM     16  C   UNL     1      -9.423  18.069  66.392  0.00  0.00    +0.022 C 
ATOM     17  C   UNL     1     -10.452  19.108  66.471  0.00  0.00    +0.019 C 
ATOM     18  C   UNL     1      -9.856  20.306  67.206  0.00  0.00    +0.072 C 
ATOM     19  N   UNL     1      -9.142  19.705  68.335  0.00  0.00    -0.271 NA
ATOM     20  C   UNL     1      -7.853  19.300  67.781  0.00  0.00    +0.072 C 
ATOM     21  C   UNL     1      -8.065  18.772  66.365  0.00  0.00    +0.019 C 
ATOM     22  C   UNL     1      -9.956  18.542  68.685  0.00  0.00    +0.092 C 
ENDBRANCH   3  15
TORSDOF 1
ENDMDL
MODEL 3
REMARK VINA RESULT:      -7.1      3.279      5.541
REMARK  Name = 
REMARK  1 active torsions:
REMARK  status: ('A' for Active; 'I' for Inactive)
REMARK    1  A    between atoms: N_14  and  C_15
REMARK                            x       y       z     vdW  Elec       q    Type
REMARK                         _______ _______ _______ _____ _____    ______ ____
ROOT
ATOM      1  O   UNL     1      -9.602  14.922  66.311  0.00  0.00    -0.270 OA
ATOM      2  C   UNL     1      -9.862  14.941  67.251  0.00  0.00    +0.249 C 
ATOM      3  N   UNL     1      -9.870  16.208  67.930  0.00  0.00    -0.276 N 
ATOM      4  C   UNL     1     -10.834  16.449  68.954  0.00  0.00    +0.098 C 
ATOM      5  C   UNL     1     -10.888  15.266  70.059  0.00  0.00    +0.042 C 
ATOM      6  C   UNL     1     -12.492  15.546  70.273  0.00  0.00    +0.006 C 
ATOM      7  C   UNL     1     -13.036  14.496  71.153  0.00  0.00    +0.005 C 
ATOM      8  C   UNL     1     -12.446  13.134  70.994  0.00  0.00    +0.026 C 
ATOM      9  C   UNL     1     -11.780  12.980  69.690  0.00  0.00    -0.026 A 
ATOM     10  C   UNL     1     -12.041  11.823  68.963  0.00  0.00    -0.005 A 
ATOM     11  C   UNL     1     -11.263  11.631  67.835  0.00  0.00    -0.000 A 
ATOM     12  C   UNL     1     -10.423  12.615  67.381  0.00  0.00    +0.004 A 
ATOM     13  C   UNL     1     -11.206  14.069  69.037  0.00  0.00    -0.020 A 
ATOM     14  C   UNL     1     -10.244  13.797  68.095  0.00  0.00    +0.049 A 
ENDROOT
BRANCH   3  15
ATOM     15  C   UNL     1     -10.220  17.438  66.992  0.00  0.00    +0.092 C 
ATOM     16  C   UNL     1     -10.034  18.543  68.188  0.00  0.00    +0.022 C 
ATOM     17  C   UNL     1      -8.611  18.775  68.446  0.00  0.00    +0.019 C 
ATOM     18  C   UNL     1      -8.070  19.665  67.329  0.00  0.00    +0.072 C 
ATOM     19  N   UNL     1      -8.648  19.090  66.112  0.00  0.00    -0.271 NA
ATOM     20  C   UNL     1      -9.987  19.668  66.033  0.00  0.00    +0.072 C 
ATOM     21  C   UNL     1     -10.569  19.765  67.440  0.00  0.00    +0.019 C 
ATOM     22  C   UNL     1      -8.706  17.657  66.395  0.00  0.00    +0.092 C 
ENDBRANCH   3  15
TORSDOF 1
ENDMDL
MODEL 4
REMARK VINA RESULT:      -7.0      3.686      5.531
REMARK  Name = 
REMARK  1 active torsions:
REMARK  status: ('A' for Active; 'I' for Inactive)
REMARK    1  A    between atoms: N_14  and  C_15
REMARK                            x       y       z     vdW  Elec       q    Type
REMARK                         _______ _______ _______ _____ _____    ______ ____
ROOT
ATOM      1  O   UNL     1     -10.825  16.891  64.678  0.00  0.00    -0.270 OA
ATOM      2  C   UNL     1     -10.584  16.222  65.346  0.00  0.00    +0.249 C 
ATOM      3  N   UNL     1      -9.913  16.662  66.538  0.00  0.00    -0.276 N 
ATOM      4  C   UNL     1     -10.155  15.984  67.771  0.00  0.00    +0.098 C 
ATOM      5  C   UNL     1      -9.997  14.377  67.647  0.00  0.00    +0.042 C 
ATOM      6  C   UNL     1     -11.150  14.180  68.799  0.00  0.00    +0.006 C 
ATOM      7  C   UNL     1     -11.471  12.745  68.899  0.00  0.00    +0.005 C 
ATOM      8  C   UNL     1     -11.434  11.972  67.621  0.00  0.00    +0.026 C 
ATOM      9  C   UNL     1     -11.550  12.857  66.449  0.00  0.00    -0.026 A 
ATOM     10  C   UNL     1     -12.436  12.486  65.445  0.00  0.00    -0.005 A 
ATOM     11  C   UNL     1     -12.386  13.240  64.286  0.00  0.00    -0.000 A 
ATOM     12  C   UNL     1     -11.632  14.384  64.221  0.00  0.00    +0.004 A 
ATOM     13  C   UNL     1     -11.085  14.171  66.484  0.00  0.00    -0.020 A 
ATOM     14  C   UNL     1     -10.812  14.769  65.278  0.00  0.00    +0.049 A 
ENDROOT
BRANCH   3  15
ATOM     15  C   UNL     1     -10.313  18.125  66.999  0.00  0.00    +0.092 C 
ATOM     16  C   UNL     1      -9.427  18.054  68.375  0.00  0.00    +0.022 C 
ATOM     17  C   UNL     1      -8.005  18.229  68.070  0.00  0.00    +0.019 C 
ATOM     18  C   UNL     1      -7.760  19.713  67.806  0.00  0.00    +0.072 C 
ATOM     19  N   UNL     1      -8.884  20.108  66.955  0.00  0.00    -0.271 NA
ATOM     20  C   UNL     1      -9.977  20.371  67.887  0.00  0.00    +0.072 C 
ATOM     21  C   UNL     1      -9.920  19.350  69.020  0.00  0.00    +0.019 C 
ATOM     22  C   UNL     1      -9.151  18.916  66.151  0.00  0.00    +0.092 C 
ENDBRANCH   3  15
TORSDOF 1
ENDMDL
MODEL 5
REMARK VINA RESULT:      -6.7      4.288      6.973
REMARK  Name = 
REMARK  1 active torsions:
REMARK  status: ('A' for Active; 'I' for Inactive)
REMARK    1  A    between atoms: N_14  and  C_15
REMARK                            x       y       z     vdW  Elec       q    Type
REMARK                         _______ _______ _______ _____ _____    ______ ____
ROOT
ATOM      1  O   UNL     1     -11.038  17.192  64.804  0.00  0.00    -0.270 OA
ATOM      2  C   UNL     1     -10.579  16.962  65.633  0.00  0.00    +0.249 C 
ATOM      3  N   UNL     1     -10.509  15.578  66.013  0.00  0.00    -0.276 N 
ATOM      4  C   UNL     1      -9.361  15.099  66.713  0.00  0.00    +0.098 C 
ATOM      5  C   UNL     1      -8.982  16.010  67.997  0.00  0.00    +0.042 C 
ATOM      6  C   UNL     1      -7.395  15.658  67.772  0.00  0.00    +0.006 C 
ATOM      7  C   UNL     1      -6.597  16.478  68.700  0.00  0.00    +0.005 C 
ATOM      8  C   UNL     1      -7.111  17.854  68.971  0.00  0.00    +0.026 C 
ATOM      9  C   UNL     1      -8.037  18.303  67.917  0.00  0.00    -0.026 A 
ATOM     10  C   UNL     1      -7.864  19.585  67.408  0.00  0.00    -0.005 A 
ATOM     11  C   UNL     1      -8.856  20.035  66.555  0.00  0.00    -0.000 A 
ATOM     12  C   UNL     1      -9.843  19.192  66.113  0.00  0.00    +0.004 A 
ATOM     13  C   UNL     1      -8.816  17.395  67.201  0.00  0.00    -0.020 A 
ATOM     14  C   UNL     1      -9.941  17.886  66.586  0.00  0.00    +0.049 A 
ENDROOT
BRANCH   3  15
ATOM     15  C   UNL     1     -10.462  14.576  64.784  0.00  0.00    +0.092 C 
ATOM     16  C   UNL     1     -10.535  13.240  65.730  0.00  0.00    +0.022 C 
ATOM     17  C   UNL     1     -11.902  13.036  66.213  0.00  0.00    +0.019 C 
ATOM     18  C   UNL     1     -12.726  12.457  65.065  0.00  0.00    +0.072 C 
ATOM     19  N   UNL     1     -12.326  13.260  63.907  0.00  0.00    -0.271 NA
ATOM     20  C   UNL     1     -11.089  12.641  63.439  0.00  0.00    +0.072 C 
ATOM     21  C   UNL     1     -10.271  12.192  64.647  0.00  0.00    +0.019 C 
ATOM     22  C   UNL     1     -12.074  14.585  64.470  0.00  0.00    +0.092 C 
ENDBRANCH   3  15
TORSDOF 1
ENDMDL
MODEL 6
REMARK VINA RESULT:      -6.7      1.816      5.725
REMARK  Name = 
REMARK  1 active torsions:
REMARK  status: ('A' for Active; 'I' for Inactive)
REMARK    1  A    between atoms: N_14  and  C_15
REMARK                            x       y       z     vdW  Elec       q    Type
REMARK                         _______ _______ _______ _____ _____    ______ ____
ROOT
ATOM      1  O   UNL     1     -11.813  10.648  68.087  0.00  0.00    -0.270 OA
ATOM      2  C   UNL     1     -11.713  11.472  68.599  0.00  0.00    +0.249 C 
ATOM      3  N   UNL     1     -11.304  12.661  67.902  0.00  0.00    -0.276 N 
ATOM      4  C   UNL     1     -11.795  13.930  68.332  0.00  0.00    +0.098 C 
ATOM      5  C   UNL     1     -11.609  14.171  69.922  0.00  0.00    +0.042 C 
ATOM      6  C   UNL     1     -12.975  15.082  69.938  0.00  0.00    +0.006 C 
ATOM      7  C   UNL     1     -13.306  15.404  71.338  0.00  0.00    +0.005 C 
ATOM      8  C   UNL     1     -13.003  14.344  72.346  0.00  0.00    +0.026 C 
ATOM      9  C   UNL     1     -12.877  13.019  71.718  0.00  0.00    -0.026 A 
ATOM     10  C   UNL     1     -13.535  11.953  72.320  0.00  0.00    -0.005 A 
ATOM     11  C   UNL     1     -13.248  10.699  71.809  0.00  0.00    -0.000 A 
ATOM     12  C   UNL     1     -12.501  10.556  70.668  0.00  0.00    +0.004 A 
ATOM     13  C   UNL     1     -12.433  12.879  70.404  0.00  0.00    -0.020 A 
ATOM     14  C   UNL     1     -11.919  11.657  70.045  0.00  0.00    +0.049 A 
ENDROOT
BRANCH   3  15
ATOM     15  C   UNL     1     -11.796  12.724  66.395  0.00  0.00    +0.092 C 
ATOM     16  C   UNL     1     -11.874  14.360  66.374  0.00  0.00    +0.022 C 
ATOM     17  C   UNL     1     -10.529  14.929  66.259  0.00  0.00    +0.019 C 
ATOM     18  C   UNL     1     -10.075  14.777  64.809  0.00  0.00    +0.072 C 
ATOM     19  N   UNL     1     -10.472  13.412  64.459  0.00  0.00    -0.271 NA
ATOM     20  C   UNL     1     -11.881  13.520  64.092  0.00  0.00    +0.072 C 
ATOM     21  C   UNL     1     -12.558  14.528  65.016  0.00  0.00    +0.019 C 
ATOM     22  C   UNL     1     -10.307  12.668  65.707  0.00  0.00    +0.092 C 
ENDBRANCH   3  15
TORSDOF 1
ENDMDL
MODEL 7
REMARK VINA RESULT:      -6.7      2.576      5.450
REMARK  Name = 
REMARK  1 active torsions:
REMARK  status: ('A' for Active; 'I' for Inactive)
REMARK    1  A    between atoms: N_14  and  C_15
REMARK                            x       y       z     vdW  Elec       q    Type
REMARK                         _______ _______ _______ _____ _____    ______ ____
ROOT
ATOM      1  O   UNL     1     -11.694  16.487  70.542  0.00  0.00    -0.270 OA
ATOM      2  C   UNL     1     -11.753  15.648  70.048  0.00  0.00    +0.249 C 
ATOM      3  N   UNL     1     -10.988  15.514  68.839  0.00  0.00    -0.276 N 
ATOM      4  C   UNL     1     -10.461  14.237  68.480  0.00  0.00    +0.098 C 
ATOM      5  C   UNL     1     -11.575  13.062  68.524  0.00  0.00    +0.042 C 
ATOM      6  C   UNL     1     -10.413  11.985  68.954  0.00  0.00    +0.006 C 
ATOM      7  C   UNL     1     -11.062  10.704  69.287  0.00  0.00    +0.005 C 
ATOM      8  C   UNL     1     -12.395  10.796  69.953  0.00  0.00    +0.026 C 
ATOM      9  C   UNL     1     -12.600  12.115  70.576  0.00  0.00    -0.026 A 
ATOM     10  C   UNL     1     -13.103  12.147  71.871  0.00  0.00    -0.005 A 
ATOM     11  C   UNL     1     -13.450  13.397  72.354  0.00  0.00    -0.000 A 
ATOM     12  C   UNL     1     -13.142  14.535  71.652  0.00  0.00    +0.004 A 
ATOM     13  C   UNL     1     -11.996  13.261  70.060  0.00  0.00    -0.020 A 
ATOM     14  C   UNL     1     -12.566  14.467  70.387  0.00  0.00    +0.049 A 
ENDROOT
BRANCH   3  15
ATOM     15  C   UNL     1      -9.628  16.329  68.845  0.00  0.00    +0.092 C 
ATOM     16  C   UNL     1      -9.297  16.002  67.274  0.00  0.00    +0.022 C 
ATOM     17  C   UNL     1     -10.126  16.834  66.398  0.00  0.00    +0.019 C 
ATOM     18  C   UNL     1      -9.535  18.242  66.389  0.00  0.00    +0.072 C 
ATOM     19  N   UNL     1      -9.229  18.502  67.797  0.00  0.00    -0.271 NA
ATOM     20  C   UNL     1      -7.930  17.871  68.015  0.00  0.00    +0.072 C 
ATOM     21  C   UNL     1      -7.876  16.565  67.228  0.00  0.00    +0.019 C 
ATOM     22  C   UNL     1     -10.286  17.799  68.522  0.00  0.00    +0.092 C 
ENDBRANCH   3  15
TORSDOF 1
ENDMDL
MODEL 8
REMARK VINA RESULT:      -6.6      3.443      6.047
REMARK  Name = 
REMARK  1 active torsions:
REMARK  status: ('A' for Active; 'I' for Inactive)
REMARK    1  A    between atoms: N_14  and  C_15
REMARK                            x       y       z     vdW  Elec       q    Type
REMARK                         _______ _______ _______ _____ _____    ______ ____
ROOT
ATOM      1  O   UNL     1     -10.267   9.297  66.144  0.00  0.00    -0.270 OA
ATOM      2  C   UNL     1     -10.355   9.613  67.063  0.00  0.00    +0.249 C 
ATOM      3  N   UNL     1     -10.588  11.015  67.281  0.00  0.00    -0.276 N 
ATOM      4  C   UNL     1     -11.389  11.429  68.388  0.00  0.00    +0.098 C 
ATOM      5  C   UNL     1     -10.928  10.754  69.786  0.00  0.00    +0.042 C 
ATOM      6  C   UNL     1     -12.485  10.781  70.305  0.00  0.00    +0.006 C 
ATOM      7  C   UNL     1     -12.565  10.050  71.582  0.00  0.00    +0.005 C 
ATOM      8  C   UNL     1     -11.664   8.866  71.720  0.00  0.00    +0.026 C 
ATOM      9  C   UNL     1     -11.218   8.369  70.407  0.00  0.00    -0.026 A 
ATOM     10  C   UNL     1     -11.277   6.999  70.180  0.00  0.00    -0.005 A 
ATOM     11  C   UNL     1     -10.684   6.555  69.011  0.00  0.00    -0.000 A 
ATOM     12  C   UNL     1     -10.233   7.441  68.067  0.00  0.00    +0.004 A 
ATOM     13  C   UNL     1     -11.082   9.227  69.316  0.00  0.00    -0.020 A 
ATOM     14  C   UNL     1     -10.260   8.814  68.296  0.00  0.00    +0.049 A 
ENDROOT
BRANCH   3  15
ATOM     15  C   UNL     1     -11.414  11.717  66.124  0.00  0.00    +0.092 C 
ATOM     16  C   UNL     1     -11.495  13.155  66.905  0.00  0.00    +0.022 C 
ATOM     17  C   UNL     1     -10.213  13.857  66.807  0.00  0.00    +0.019 C 
ATOM     18  C   UNL     1     -10.107  14.450  65.404  0.00  0.00    +0.072 C 
ATOM     19  N   UNL     1     -10.573  13.370  64.531  0.00  0.00    -0.271 NA
ATOM     20  C   UNL     1     -12.029  13.480  64.555  0.00  0.00    +0.072 C 
ATOM     21  C   UNL     1     -12.475  13.860  65.964  0.00  0.00    +0.019 C 
ATOM     22  C   UNL     1     -10.124  12.154  65.207  0.00  0.00    +0.092 C 
ENDBRANCH   3  15
TORSDOF 1
ENDMDL
MODEL 9
REMARK VINA RESULT:      -6.5      2.332      6.296
REMARK  Name = 
REMARK  1 active torsions:
REMARK  status: ('A' for Active; 'I' for Inactive)
REMARK    1  A    between atoms: N_14  and  C_15
REMARK                            x       y       z     vdW  Elec       q    Type
REMARK                         _______ _______ _______ _____ _____    ______ ____
ROOT
ATOM      1  O   UNL     1     -10.904  17.052  69.962  0.00  0.00    -0.270 OA
ATOM      2  C   UNL     1     -11.459  16.250  69.968  0.00  0.00    +0.249 C 
ATOM      3  N   UNL     1     -11.468  15.419  68.795  0.00  0.00    -0.276 N 
ATOM      4  C   UNL     1     -11.620  14.007  68.936  0.00  0.00    +0.098 C 
ATOM      5  C   UNL     1     -12.879  13.601  69.870  0.00  0.00    +0.042 C 
ATOM      6  C   UNL     1     -12.068  12.265  70.373  0.00  0.00    +0.006 C 
ATOM      7  C   UNL     1     -12.842  11.626  71.452  0.00  0.00    +0.005 C 
ATOM      8  C   UNL     1     -13.574  12.548  72.372  0.00  0.00    +0.026 C 
ATOM      9  C   UNL     1     -13.017  13.910  72.329  0.00  0.00    -0.026 A 
ATOM     10  C   UNL     1     -12.786  14.553  73.540  0.00  0.00    -0.005 A 
ATOM     11  C   UNL     1     -12.436  15.889  73.457  0.00  0.00    -0.000 A 
ATOM     12  C   UNL     1     -12.164  16.474  72.247  0.00  0.00    +0.004 A 
ATOM     13  C   UNL     1     -12.412  14.410  71.176  0.00  0.00    -0.020 A 
ATOM     14  C   UNL     1     -12.332  15.775  71.055  0.00  0.00    +0.049 A 
ENDROOT
BRANCH   3  15
ATOM     15  C   UNL     1     -10.098  15.423  67.995  0.00  0.00    +0.092 C 
ATOM     16  C   UNL     1     -10.588  14.274  66.934  0.00  0.00    +0.022 C 
ATOM     17  C   UNL     1     -11.499  14.855  65.945  0.00  0.00    +0.019 C 
ATOM     18  C   UNL     1     -10.662  15.644  64.941  0.00  0.00    +0.072 C 
ATOM     19  N   UNL     1      -9.710  16.377  65.778  0.00  0.00    -0.271 NA
ATOM     20  C   UNL     1      -8.639  15.420  66.042  0.00  0.00    +0.072 C 
ATOM     21  C   UNL     1      -9.248  14.035  66.237  0.00  0.00    +0.019 C 
ATOM     22  C   UNL     1     -10.466  16.671  66.994  0.00  0.00    +0.092 C 
ENDBRANCH   3  15
TORSDOF 1
ENDMDL
