MODEL 1
REMARK VINA RESULT:      -7.2      0.000      0.000
REMARK  Name = 
REMARK  9 active torsions:
REMARK  status: ('A' for Active; 'I' for Inactive)
REMARK    1  A    between atoms: C_2  and  C_4
REMARK    2  A    between atoms: C_4  and  C_6
REMARK    3  A    between atoms: C_6  and  O_8
REMARK    4  A    between atoms: O_8  and  C_9
REMARK    5  A    between atoms: C_9  and  C_10
REMARK    6  A    between atoms: C_10  and  C_11
REMARK    7  A    between atoms: C_10  and  O_13
REMARK    8  A    between atoms: O_13  and  C_14
REMARK    9  A    between atoms: C_14  and  N_15
REMARK                            x       y       z     vdW  Elec       q    Type
REMARK                         _______ _______ _______ _____ _____    ______ ____
ROOT
ATOM      1  O   UNL     1      -9.719  15.324  68.045  0.00  0.00    -0.328 OA
ENDROOT
BRANCH   1   2
ATOM      2  C   UNL     1      -9.994  14.059  68.247  0.00  0.00    +0.258 C 
BRANCH   2   3
ATOM      3  N   UNL     1     -10.920  13.351  67.452  0.00  0.00    -0.268 N 
ATOM      4  C   UNL     1     -11.527  13.823  66.362  0.00  0.00    +0.172 A 
ATOM      5  N   UNL     1     -11.494  15.059  65.837  0.00  0.00    -0.192 NA
ATOM      6  C   UNL     1     -11.848  15.286  64.559  0.00  0.00    +0.261 A 
ATOM      7  N   UNL     1     -12.592  14.337  63.976  0.00  0.00    -0.171 NA
ATOM      8  C   UNL     1     -12.669  13.073  64.422  0.00  0.00    +0.302 A 
ATOM      9  O   UNL     1     -12.811  12.087  63.639  0.00  0.00    -0.263 OA
ATOM     10  N   UNL     1     -11.509  16.508  63.910  0.00  0.00    -0.086 NA
ATOM     11  C   UNL     1     -12.079  12.793  65.636  0.00  0.00    +0.175 A 
ATOM     12  N   UNL     1     -11.677  11.680  66.279  0.00  0.00    -0.217 NA
ATOM     13  C   UNL     1     -10.930  12.000  67.333  0.00  0.00    +0.182 A 
ENDBRANCH   2   3
ENDBRANCH   1   2
BRANCH   1  14
ATOM     14  C   UNL     1      -9.783  16.159  69.309  0.00  0.00    +0.194 C 
BRANCH  14  15
ATOM     15  C   UNL     1      -9.633  17.604  68.535  0.00  0.00    +0.215 C 
ATOM     16  O   UNL     1     -10.785  17.925  67.914  0.00  0.00    -0.218 OA
ENDBRANCH  14  15
BRANCH  14  17
ATOM     17  C   UNL     1     -11.437  16.183  69.289  0.00  0.00    +0.241 C 
BRANCH  17  18
ATOM     18  O   UNL     1     -11.793  16.014  70.665  0.00  0.00    -0.445 OA
BRANCH  18  19
ATOM     19  C   UNL     1     -12.750  15.136  71.011  0.00  0.00    +0.335 C 
ATOM     20  O   UNL     1     -12.689  13.895  70.752  0.00  0.00    -0.248 OA
BRANCH  19  21
ATOM     21  C   UNL     1     -13.590  15.337  72.371  0.00  0.00    +0.190 C 
ATOM     22  N   UNL     1     -13.748  13.784  72.614  0.00  0.00    -0.121 NA
BRANCH  21  24
ATOM     23  C   UNL     1     -12.470  15.002  74.066  0.00  0.00    +0.002 C 
ATOM     24  C   UNL     1     -12.252  15.419  73.329  0.00  0.00    +0.029 C 
ATOM     25  C   UNL     1     -12.291  16.803  73.969  0.00  0.00    +0.002 C 
ENDBRANCH  21  24
ENDBRANCH  19  21
ENDBRANCH  18  19
ENDBRANCH  17  18
ENDBRANCH  14  17
ENDBRANCH   1  14
TORSDOF 9
ENDMDL
MODEL 2
REMARK VINA RESULT:      -7.1      1.761      4.544
REMARK  Name = 
REMARK  9 active torsions:
REMARK  status: ('A' for Active; 'I' for Inactive)
REMARK    1  A    between atoms: C_2  and  C_4
REMARK    2  A    between atoms: C_4  and  C_6
REMARK    3  A    between atoms: C_6  and  O_8
REMARK    4  A    between atoms: O_8  and  C_9
REMARK    5  A    between atoms: C_9  and  C_10
REMARK    6  A    between atoms: C_10  and  C_11
REMARK    7  A    between atoms: C_10  and  O_13
REMARK    8  A    between atoms: O_13  and  C_14
REMARK    9  A    between atoms: C_14  and  N_15
REMARK                            x       y       z     vdW  Elec       q    Type
REMARK                         _______ _______ _______ _____ _____    ______ ____
ROOT
ATOM      1  O   UNL     1     -11.033  14.418  69.653  0.00  0.00    -0.328 OA
ENDROOT
BRANCH   1   2
ATOM      2  C   UNL     1     -10.537  14.030  68.504  0.00  0.00    +0.258 C 
BRANCH   2   3
ATOM      3  N   UNL     1     -11.287  13.277  67.574  0.00  0.00    -0.268 N 
ATOM      4  C   UNL     1     -11.743  13.725  66.403  0.00  0.00    +0.172 A 
ATOM      5  N   UNL     1     -11.699  14.966  65.890  0.00  0.00    -0.192 NA
ATOM      6  C   UNL     1     -11.862  15.184  64.573  0.00  0.00    +0.261 A 
ATOM      7  N   UNL     1     -12.450  14.200  63.881  0.00  0.00    -0.171 NA
ATOM      8  C   UNL     1     -12.524  12.930  64.308  0.00  0.00    +0.302 A 
ATOM      9  O   UNL     1     -12.485  11.944  63.512  0.00  0.00    -0.263 OA
ATOM     10  N   UNL     1     -11.496  16.429  63.985  0.00  0.00    -0.086 NA
ATOM     11  C   UNL     1     -12.115  12.672  65.600  0.00  0.00    +0.175 A 
ATOM     12  N   UNL     1     -11.756  11.578  66.297  0.00  0.00    -0.217 NA
ATOM     13  C   UNL     1     -11.201  11.929  67.455  0.00  0.00    +0.182 A 
ENDBRANCH   2   3
ENDBRANCH   1   2
BRANCH   1  14
ATOM     14  C   UNL     1     -11.982  15.593  69.529  0.00  0.00    +0.194 C 
BRANCH  14  15
ATOM     15  C   UNL     1     -12.131  15.831  71.150  0.00  0.00    +0.215 C 
ATOM     16  O   UNL     1     -13.429  15.799  71.512  0.00  0.00    -0.218 OA
ENDBRANCH  14  15
BRANCH  14  17
ATOM     17  C   UNL     1     -10.736  16.668  69.364  0.00  0.00    +0.241 C 
BRANCH  17  18
ATOM     18  O   UNL     1     -11.071  17.395  68.178  0.00  0.00    -0.445 OA
BRANCH  18  19
ATOM     19  C   UNL     1     -10.354  18.475  67.822  0.00  0.00    +0.335 C 
ATOM     20  O   UNL     1      -9.681  19.170  68.643  0.00  0.00    -0.248 OA
BRANCH  19  21
ATOM     21  C   UNL     1      -9.633  18.538  66.383  0.00  0.00    +0.190 C 
ATOM     22  N   UNL     1      -8.927  19.918  66.692  0.00  0.00    -0.121 NA
BRANCH  21  24
ATOM     23  C   UNL     1      -7.666  17.931  66.341  0.00  0.00    +0.002 C 
ATOM     24  C   UNL     1      -8.315  17.678  66.870  0.00  0.00    +0.029 C 
ATOM     25  C   UNL     1      -8.459  16.305  66.218  0.00  0.00    +0.002 C 
ENDBRANCH  21  24
ENDBRANCH  19  21
ENDBRANCH  18  19
ENDBRANCH  17  18
ENDBRANCH  14  17
ENDBRANCH   1  14
TORSDOF 9
ENDMDL
MODEL 3
REMARK VINA RESULT:      -7.0      2.077      6.756
REMARK  Name = 
REMARK  9 active torsions:
REMARK  status: ('A' for Active; 'I' for Inactive)
REMARK    1  A    between atoms: C_2  and  C_4
REMARK    2  A    between atoms: C_4  and  C_6
REMARK    3  A    between atoms: C_6  and  O_8
REMARK    4  A    between atoms: O_8  and  C_9
REMARK    5  A    between atoms: C_9  and  C_10
REMARK    6  A    between atoms: C_10  and  C_11
REMARK    7  A    between atoms: C_10  and  O_13
REMARK    8  A    between atoms: O_13  and  C_14
REMARK    9  A    between atoms: C_14  and  N_15
REMARK                            x       y       z     vdW  Elec       q    Type
REMARK                         _______ _______ _______ _____ _____    ______ ____
ROOT
ATOM      1  O   UNL     1     -10.974  17.073  68.339  0.00  0.00    -0.328 OA
ENDROOT
BRANCH   1   2
ATOM      2  C   UNL     1     -10.826  16.686  69.582  0.00  0.00    +0.258 C 
BRANCH   2   3
ATOM      3  N   UNL     1     -11.400  15.495  70.076  0.00  0.00    -0.268 N 
ATOM      4  C   UNL     1     -11.798  15.289  71.332  0.00  0.00    +0.172 A 
ATOM      5  N   UNL     1     -11.664  16.081  72.408  0.00  0.00    -0.192 NA
ATOM      6  C   UNL     1     -12.427  15.909  73.503  0.00  0.00    +0.261 A 
ATOM      7  N   UNL     1     -13.017  14.713  73.628  0.00  0.00    -0.171 NA
ATOM      8  C   UNL     1     -13.209  13.867  72.604  0.00  0.00    +0.302 A 
ATOM      9  O   UNL     1     -14.220  13.105  72.536  0.00  0.00    -0.263 OA
ATOM     10  N   UNL     1     -12.522  16.924  74.497  0.00  0.00    -0.086 NA
ATOM     11  C   UNL     1     -12.616  14.185  71.400  0.00  0.00    +0.175 A 
ATOM     12  N   UNL     1     -12.779  13.811  70.117  0.00  0.00    -0.217 NA
ATOM     13  C   UNL     1     -12.105  14.626  69.309  0.00  0.00    +0.182 A 
ENDBRANCH   2   3
ENDBRANCH   1   2
BRANCH   1  14
ATOM     14  C   UNL     1     -10.204  18.337  68.010  0.00  0.00    +0.194 C 
BRANCH  14  15
ATOM     15  C   UNL     1      -8.739  17.733  68.452  0.00  0.00    +0.215 C 
ATOM     16  O   UNL     1      -7.861  18.734  68.655  0.00  0.00    -0.218 OA
ENDBRANCH  14  15
BRANCH  14  17
ATOM     17  C   UNL     1     -10.039  17.903  66.422  0.00  0.00    +0.241 C 
BRANCH  17  18
ATOM     18  O   UNL     1     -10.540  16.563  66.384  0.00  0.00    -0.445 OA
BRANCH  18  19
ATOM     19  C   UNL     1     -11.011  16.051  65.235  0.00  0.00    +0.335 C 
ATOM     20  O   UNL     1     -11.251  16.750  64.203  0.00  0.00    -0.248 OA
BRANCH  19  21
ATOM     21  C   UNL     1     -10.585  14.570  64.765  0.00  0.00    +0.190 C 
ATOM     22  N   UNL     1     -10.521  14.017  66.244  0.00  0.00    -0.121 NA
BRANCH  21  24
ATOM     23  C   UNL     1     -12.325  13.607  65.294  0.00  0.00    +0.002 C 
ATOM     24  C   UNL     1     -12.136  14.054  64.567  0.00  0.00    +0.029 C 
ATOM     25  C   UNL     1     -12.043  12.807  63.692  0.00  0.00    +0.002 C 
ENDBRANCH  21  24
ENDBRANCH  19  21
ENDBRANCH  18  19
ENDBRANCH  17  18
ENDBRANCH  14  17
ENDBRANCH   1  14
TORSDOF 9
ENDMDL
MODEL 4
REMARK VINA RESULT:      -6.9      1.999      3.428
REMARK  Name = 
REMARK  9 active torsions:
REMARK  status: ('A' for Active; 'I' for Inactive)
REMARK    1  A    between atoms: C_2  and  C_4
REMARK    2  A    between atoms: C_4  and  C_6
REMARK    3  A    between atoms: C_6  and  O_8
REMARK    4  A    between atoms: O_8  and  C_9
REMARK    5  A    between atoms: C_9  and  C_10
REMARK    6  A    between atoms: C_10  and  C_11
REMARK    7  A    between atoms: C_10  and  O_13
REMARK    8  A    between atoms: O_13  and  C_14
REMARK    9  A    between atoms: C_14  and  N_15
REMARK                            x       y       z     vdW  Elec       q    Type
REMARK                         _______ _______ _______ _____ _____    ______ ____
ROOT
ATOM      1  O   UNL     1     -10.750  11.543  68.074  0.00  0.00    -0.328 OA
ENDROOT
BRANCH   1   2
ATOM      2  C   UNL     1     -10.957  11.635  66.784  0.00  0.00    +0.258 C 
BRANCH   2   3
ATOM      3  N   UNL     1     -11.542  12.776  66.192  0.00  0.00    -0.268 N 
ATOM      4  C   UNL     1     -10.986  13.986  66.126  0.00  0.00    +0.172 A 
ATOM      5  N   UNL     1      -9.840  14.428  66.669  0.00  0.00    -0.192 NA
ATOM      6  C   UNL     1      -9.236  15.542  66.217  0.00  0.00    +0.261 A 
ATOM      7  N   UNL     1     -10.002  16.381  65.508  0.00  0.00    -0.171 NA
ATOM      8  C   UNL     1     -11.151  16.022  64.917  0.00  0.00    +0.302 A 
ATOM      9  O   UNL     1     -11.537  16.530  63.822  0.00  0.00    -0.263 OA
ATOM     10  N   UNL     1      -7.882  15.829  66.554  0.00  0.00    -0.086 NA
ATOM     11  C   UNL     1     -11.641  14.764  65.199  0.00  0.00    +0.175 A 
ATOM     12  N   UNL     1     -12.536  13.929  64.636  0.00  0.00    -0.217 NA
ATOM     13  C   UNL     1     -12.443  12.718  65.180  0.00  0.00    +0.182 A 
ENDBRANCH   2   3
ENDBRANCH   1   2
BRANCH   1  14
ATOM     14  C   UNL     1     -12.012  11.718  68.896  0.00  0.00    +0.194 C 
BRANCH  14  15
ATOM     15  C   UNL     1     -11.531  10.721  70.114  0.00  0.00    +0.215 C 
ATOM     16  O   UNL     1     -12.420  10.753  71.125  0.00  0.00    -0.218 OA
ENDBRANCH  14  15
BRANCH  14  17
ATOM     17  C   UNL     1     -11.429  13.085  69.623  0.00  0.00    +0.241 C 
BRANCH  17  18
ATOM     18  O   UNL     1     -12.598  13.885  69.825  0.00  0.00    -0.445 OA
BRANCH  18  19
ATOM     19  C   UNL     1     -12.513  15.047  70.494  0.00  0.00    +0.335 C 
ATOM     20  O   UNL     1     -12.198  16.149  69.949  0.00  0.00    -0.248 OA
BRANCH  19  21
ATOM     21  C   UNL     1     -13.499  15.351  71.732  0.00  0.00    +0.190 C 
ATOM     22  N   UNL     1     -13.873  13.828  71.929  0.00  0.00    -0.121 NA
BRANCH  21  24
ATOM     23  C   UNL     1     -12.528  14.615  73.391  0.00  0.00    +0.002 C 
ATOM     24  C   UNL     1     -12.303  15.273  72.862  0.00  0.00    +0.029 C 
ATOM     25  C   UNL     1     -12.637  16.356  73.884  0.00  0.00    +0.002 C 
ENDBRANCH  21  24
ENDBRANCH  19  21
ENDBRANCH  18  19
ENDBRANCH  17  18
ENDBRANCH  14  17
ENDBRANCH   1  14
TORSDOF 9
ENDMDL
MODEL 5
REMARK VINA RESULT:      -6.9      2.276      6.582
REMARK  Name = 
REMARK  9 active torsions:
REMARK  status: ('A' for Active; 'I' for Inactive)
REMARK    1  A    between atoms: C_2  and  C_4
REMARK    2  A    between atoms: C_4  and  C_6
REMARK    3  A    between atoms: C_6  and  O_8
REMARK    4  A    between atoms: O_8  and  C_9
REMARK    5  A    between atoms: C_9  and  C_10
REMARK    6  A    between atoms: C_10  and  C_11
REMARK    7  A    between atoms: C_10  and  O_13
REMARK    8  A    between atoms: O_13  and  C_14
REMARK    9  A    between atoms: C_14  and  N_15
REMARK                            x       y       z     vdW  Elec       q    Type
REMARK                         _______ _______ _______ _____ _____    ______ ____
ROOT
ATOM      1  O   UNL     1     -10.806  15.780  67.801  0.00  0.00    -0.328 OA
ENDROOT
BRANCH   1   2
ATOM      2  C   UNL     1     -11.748  14.876  67.903  0.00  0.00    +0.258 C 
BRANCH   2   3
ATOM      3  N   UNL     1     -11.709  13.850  68.873  0.00  0.00    -0.268 N 
ATOM      4  C   UNL     1     -12.275  13.902  70.079  0.00  0.00    +0.172 A 
ATOM      5  N   UNL     1     -12.899  14.927  70.684  0.00  0.00    -0.192 NA
ATOM      6  C   UNL     1     -13.726  14.725  71.725  0.00  0.00    +0.261 A 
ATOM      7  N   UNL     1     -13.592  13.557  72.367  0.00  0.00    -0.171 NA
ATOM      8  C   UNL     1     -13.000  12.478  71.833  0.00  0.00    +0.302 A 
ATOM      9  O   UNL     1     -13.378  11.298  72.099  0.00  0.00    -0.263 OA
ATOM     10  N   UNL     1     -14.628  15.741  72.152  0.00  0.00    -0.086 NA
ATOM     11  C   UNL     1     -12.356  12.642  70.626  0.00  0.00    +0.175 A 
ATOM     12  N   UNL     1     -11.919  11.827  69.647  0.00  0.00    -0.217 NA
ATOM     13  C   UNL     1     -11.587  12.534  68.569  0.00  0.00    +0.182 A 
ENDBRANCH   2   3
ENDBRANCH   1   2
BRANCH   1  14
ATOM     14  C   UNL     1     -10.575  16.245  66.376  0.00  0.00    +0.194 C 
BRANCH  14  15
ATOM     15  C   UNL     1      -9.200  17.082  66.718  0.00  0.00    +0.215 C 
ATOM     16  O   UNL     1      -8.316  16.963  65.709  0.00  0.00    -0.218 OA
ENDBRANCH  14  15
BRANCH  14  17
ATOM     17  C   UNL     1      -9.773  14.852  65.982  0.00  0.00    +0.241 C 
BRANCH  17  18
ATOM     18  O   UNL     1     -10.366  14.461  64.739  0.00  0.00    -0.445 OA
BRANCH  18  19
ATOM     19  C   UNL     1     -11.650  14.065  64.700  0.00  0.00    +0.335 C 
ATOM     20  O   UNL     1     -12.527  14.603  63.957  0.00  0.00    -0.248 OA
BRANCH  19  21
ATOM     21  C   UNL     1     -12.033  12.514  64.906  0.00  0.00    +0.190 C 
ATOM     22  N   UNL     1     -12.889  12.452  63.579  0.00  0.00    -0.121 NA
BRANCH  21  24
ATOM     23  C   UNL     1     -10.976  11.378  63.553  0.00  0.00    +0.002 C 
ATOM     24  C   UNL     1     -10.685  11.954  64.143  0.00  0.00    +0.029 C 
ATOM     25  C   UNL     1     -10.108  10.884  65.066  0.00  0.00    +0.002 C 
ENDBRANCH  21  24
ENDBRANCH  19  21
ENDBRANCH  18  19
ENDBRANCH  17  18
ENDBRANCH  14  17
ENDBRANCH   1  14
TORSDOF 9
ENDMDL
MODEL 6
REMARK VINA RESULT:      -6.9      1.761      4.395
REMARK  Name = 
REMARK  9 active torsions:
REMARK  status: ('A' for Active; 'I' for Inactive)
REMARK    1  A    between atoms: C_2  and  C_4
REMARK    2  A    between atoms: C_4  and  C_6
REMARK    3  A    between atoms: C_6  and  O_8
REMARK    4  A    between atoms: O_8  and  C_9
REMARK    5  A    between atoms: C_9  and  C_10
REMARK    6  A    between atoms: C_10  and  C_11
REMARK    7  A    between atoms: C_10  and  O_13
REMARK    8  A    between atoms: O_13  and  C_14
REMARK    9  A    between atoms: C_14  and  N_15
REMARK                            x       y       z     vdW  Elec       q    Type
REMARK                         _______ _______ _______ _____ _____    ______ ____
ROOT
ATOM      1  O   UNL     1     -11.539  14.210  69.516  0.00  0.00    -0.328 OA
ENDROOT
BRANCH   1   2
ATOM      2  C   UNL     1     -10.860  13.749  68.495  0.00  0.00    +0.258 C 
BRANCH   2   3
ATOM      3  N   UNL     1     -11.463  12.991  67.467  0.00  0.00    -0.268 N 
ATOM      4  C   UNL     1     -11.858  13.466  66.285  0.00  0.00    +0.172 A 
ATOM      5  N   UNL     1     -11.878  14.733  65.839  0.00  0.00    -0.192 NA
ATOM      6  C   UNL     1     -11.950  15.011  64.525  0.00  0.00    +0.261 A 
ATOM      7  N   UNL     1     -12.393  14.023  63.736  0.00  0.00    -0.171 NA
ATOM      8  C   UNL     1     -12.392  12.729  64.093  0.00  0.00    +0.302 A 
ATOM      9  O   UNL     1     -12.204  11.796  63.256  0.00  0.00    -0.263 OA
ATOM     10  N   UNL     1     -11.645  16.312  64.033  0.00  0.00    -0.086 NA
ATOM     11  C   UNL     1     -12.071  12.433  65.401  0.00  0.00    +0.175 A 
ATOM     12  N   UNL     1     -11.678  11.334  66.072  0.00  0.00    -0.217 NA
ATOM     13  C   UNL     1     -11.253  11.664  67.290  0.00  0.00    +0.182 A 
ENDBRANCH   2   3
ENDBRANCH   1   2
BRANCH   1  14
ATOM     14  C   UNL     1     -11.868  15.686  69.397  0.00  0.00    +0.194 C 
BRANCH  14  15
ATOM     15  C   UNL     1     -12.195  15.890  70.997  0.00  0.00    +0.215 C 
ATOM     16  O   UNL     1     -11.371  15.130  71.745  0.00  0.00    -0.218 OA
ENDBRANCH  14  15
BRANCH  14  17
ATOM     17  C   UNL     1     -10.278  16.120  69.544  0.00  0.00    +0.241 C 
BRANCH  17  18
ATOM     18  O   UNL     1     -10.016  16.853  68.343  0.00  0.00    -0.445 OA
BRANCH  18  19
ATOM     19  C   UNL     1      -8.884  17.566  68.221  0.00  0.00    +0.335 C 
ATOM     20  O   UNL     1      -7.765  17.189  68.687  0.00  0.00    -0.248 OA
BRANCH  19  21
ATOM     21  C   UNL     1      -8.618  18.458  66.906  0.00  0.00    +0.190 C 
ATOM     22  N   UNL     1      -8.911  17.260  65.918  0.00  0.00    -0.121 NA
BRANCH  21  24
ATOM     23  C   UNL     1     -10.236  19.378  66.026  0.00  0.00    +0.002 C 
ATOM     24  C   UNL     1     -10.170  19.003  66.813  0.00  0.00    +0.029 C 
ATOM     25  C   UNL     1     -10.183  20.328  67.570  0.00  0.00    +0.002 C 
ENDBRANCH  21  24
ENDBRANCH  19  21
ENDBRANCH  18  19
ENDBRANCH  17  18
ENDBRANCH  14  17
ENDBRANCH   1  14
TORSDOF 9
ENDMDL
MODEL 7
REMARK VINA RESULT:      -6.7      3.230      4.635
REMARK  Name = 
REMARK  9 active torsions:
REMARK  status: ('A' for Active; 'I' for Inactive)
REMARK    1  A    between atoms: C_2  and  C_4
REMARK    2  A    between atoms: C_4  and  C_6
REMARK    3  A    between atoms: C_6  and  O_8
REMARK    4  A    between atoms: O_8  and  C_9
REMARK    5  A    between atoms: C_9  and  C_10
REMARK    6  A    between atoms: C_10  and  C_11
REMARK    7  A    between atoms: C_10  and  O_13
REMARK    8  A    between atoms: O_13  and  C_14
REMARK    9  A    between atoms: C_14  and  N_15
REMARK                            x       y       z     vdW  Elec       q    Type
REMARK                         _______ _______ _______ _____ _____    ______ ____
ROOT
ATOM      1  O   UNL     1      -8.986  14.009  68.101  0.00  0.00    -0.328 OA
ENDROOT
BRANCH   1   2
ATOM      2  C   UNL     1     -10.266  13.804  68.296  0.00  0.00    +0.258 C 
BRANCH   2   3
ATOM      3  N   UNL     1     -11.055  13.051  67.399  0.00  0.00    -0.268 N 
ATOM      4  C   UNL     1     -11.613  13.516  66.280  0.00  0.00    +0.172 A 
ATOM      5  N   UNL     1     -11.651  14.772  65.805  0.00  0.00    -0.192 NA
ATOM      6  C   UNL     1     -11.920  15.022  64.511  0.00  0.00    +0.261 A 
ATOM      7  N   UNL     1     -12.522  14.037  63.832  0.00  0.00    -0.171 NA
ATOM      8  C   UNL     1     -12.519  12.754  64.223  0.00  0.00    +0.302 A 
ATOM      9  O   UNL     1     -12.504  11.794  63.395  0.00  0.00    -0.263 OA
ATOM     10  N   UNL     1     -11.644  16.297  63.939  0.00  0.00    -0.086 NA
ATOM     11  C   UNL     1     -12.006  12.474  65.472  0.00  0.00    +0.175 A 
ATOM     12  N   UNL     1     -11.557  11.374  66.105  0.00  0.00    -0.217 NA
ATOM     13  C   UNL     1     -10.930  11.712  67.230  0.00  0.00    +0.182 A 
ENDBRANCH   2   3
ENDBRANCH   1   2
BRANCH   1  14
ATOM     14  C   UNL     1      -8.591  15.469  68.211  0.00  0.00    +0.194 C 
BRANCH  14  15
ATOM     15  C   UNL     1      -6.995  15.167  68.474  0.00  0.00    +0.215 C 
ATOM     16  O   UNL     1      -6.354  14.985  67.303  0.00  0.00    -0.218 OA
ENDBRANCH  14  15
BRANCH  14  17
ATOM     17  C   UNL     1      -8.418  15.613  66.572  0.00  0.00    +0.241 C 
BRANCH  17  18
ATOM     18  O   UNL     1      -9.072  16.851  66.271  0.00  0.00    -0.445 OA
BRANCH  18  19
ATOM     19  C   UNL     1      -8.369  17.995  66.237  0.00  0.00    +0.335 C 
ATOM     20  O   UNL     1      -7.315  18.149  65.547  0.00  0.00    -0.248 OA
BRANCH  19  21
ATOM     21  C   UNL     1      -9.116  19.417  66.359  0.00  0.00    +0.190 C 
ATOM     22  N   UNL     1     -10.461  18.870  65.735  0.00  0.00    -0.121 NA
BRANCH  21  24
ATOM     23  C   UNL     1      -9.977  19.908  68.164  0.00  0.00    +0.002 C 
ATOM     24  C   UNL     1      -9.642  19.146  67.897  0.00  0.00    +0.029 C 
ATOM     25  C   UNL     1      -8.400  19.258  68.778  0.00  0.00    +0.002 C 
ENDBRANCH  21  24
ENDBRANCH  19  21
ENDBRANCH  18  19
ENDBRANCH  17  18
ENDBRANCH  14  17
ENDBRANCH   1  14
TORSDOF 9
ENDMDL
MODEL 8
REMARK VINA RESULT:      -6.7      1.215      1.715
REMARK  Name = 
REMARK  9 active torsions:
REMARK  status: ('A' for Active; 'I' for Inactive)
REMARK    1  A    between atoms: C_2  and  C_4
REMARK    2  A    between atoms: C_4  and  C_6
REMARK    3  A    between atoms: C_6  and  O_8
REMARK    4  A    between atoms: O_8  and  C_9
REMARK    5  A    between atoms: C_9  and  C_10
REMARK    6  A    between atoms: C_10  and  C_11
REMARK    7  A    between atoms: C_10  and  O_13
REMARK    8  A    between atoms: O_13  and  C_14
REMARK    9  A    between atoms: C_14  and  N_15
REMARK                            x       y       z     vdW  Elec       q    Type
REMARK                         _______ _______ _______ _____ _____    ______ ____
ROOT
ATOM      1  O   UNL     1      -9.922  14.277  68.835  0.00  0.00    -0.328 OA
ENDROOT
BRANCH   1   2
ATOM      2  C   UNL     1     -11.181  13.999  68.607  0.00  0.00    +0.258 C 
BRANCH   2   3
ATOM      3  N   UNL     1     -11.584  13.087  67.607  0.00  0.00    -0.268 N 
ATOM      4  C   UNL     1     -11.958  13.410  66.368  0.00  0.00    +0.172 A 
ATOM      5  N   UNL     1     -12.137  14.624  65.822  0.00  0.00    -0.192 NA
ATOM      6  C   UNL     1     -12.152  14.795  64.488  0.00  0.00    +0.261 A 
ATOM      7  N   UNL     1     -12.380  13.697  63.755  0.00  0.00    -0.171 NA
ATOM      8  C   UNL     1     -12.210  12.448  64.214  0.00  0.00    +0.302 A 
ATOM      9  O   UNL     1     -11.820  11.500  63.467  0.00  0.00    -0.263 OA
ATOM     10  N   UNL     1     -12.013  16.091  63.913  0.00  0.00    -0.086 NA
ATOM     11  C   UNL     1     -11.945  12.298  65.559  0.00  0.00    +0.175 A 
ATOM     12  N   UNL     1     -11.441  11.323  66.339  0.00  0.00    -0.217 NA
ATOM     13  C   UNL     1     -11.162  11.800  67.551  0.00  0.00    +0.182 A 
ENDBRANCH   2   3
ENDBRANCH   1   2
BRANCH   1  14
ATOM     14  C   UNL     1      -9.719  15.621  69.508  0.00  0.00    +0.194 C 
BRANCH  14  15
ATOM     15  C   UNL     1     -10.109  16.509  68.177  0.00  0.00    +0.215 C 
ATOM     16  O   UNL     1     -11.018  17.451  68.493  0.00  0.00    -0.218 OA
ENDBRANCH  14  15
BRANCH  14  17
ATOM     17  C   UNL     1     -11.259  15.627  70.111  0.00  0.00    +0.241 C 
BRANCH  17  18
ATOM     18  O   UNL     1     -11.124  14.992  71.387  0.00  0.00    -0.445 OA
BRANCH  18  19
ATOM     19  C   UNL     1     -11.678  15.547  72.478  0.00  0.00    +0.335 C 
ATOM     20  O   UNL     1     -11.825  16.799  72.630  0.00  0.00    -0.248 OA
BRANCH  19  21
ATOM     21  C   UNL     1     -12.861  14.791  73.268  0.00  0.00    +0.190 C 
ATOM     22  N   UNL     1     -13.816  16.050  73.234  0.00  0.00    -0.121 NA
BRANCH  21  24
ATOM     23  C   UNL     1     -14.398  14.242  72.012  0.00  0.00    +0.002 C 
ATOM     24  C   UNL     1     -13.534  14.160  71.903  0.00  0.00    +0.029 C 
ATOM     25  C   UNL     1     -13.538  12.648  72.111  0.00  0.00    +0.002 C 
ENDBRANCH  21  24
ENDBRANCH  19  21
ENDBRANCH  18  19
ENDBRANCH  17  18
ENDBRANCH  14  17
ENDBRANCH   1  14
TORSDOF 9
ENDMDL
MODEL 9
REMARK VINA RESULT:      -6.6      2.616      6.028
REMARK  Name = 
REMARK  9 active torsions:
REMARK  status: ('A' for Active; 'I' for Inactive)
REMARK    1  A    between atoms: C_2  and  C_4
REMARK    2  A    between atoms: C_4  and  C_6
REMARK    3  A    between atoms: C_6  and  O_8
REMARK    4  A    between atoms: O_8  and  C_9
REMARK    5  A    between atoms: C_9  and  C_10
REMARK    6  A    between atoms: C_10  and  C_11
REMARK    7  A    between atoms: C_10  and  O_13
REMARK    8  A    between atoms: O_13  and  C_14
REMARK    9  A    between atoms: C_14  and  N_15
REMARK                            x       y       z     vdW  Elec       q    Type
REMARK                         _______ _______ _______ _____ _____    ______ ____
ROOT
ATOM      1  O   UNL     1     -12.038  13.920  66.472  0.00  0.00    -0.328 OA
ENDROOT
BRANCH   1   2
ATOM      2  C   UNL     1     -11.623  14.200  67.683  0.00  0.00    +0.258 C 
BRANCH   2   3
ATOM      3  N   UNL     1     -11.628  13.244  68.723  0.00  0.00    -0.268 N 
ATOM      4  C   UNL     1     -12.192  13.405  69.920  0.00  0.00    +0.172 A 
ATOM      5  N   UNL     1     -12.773  14.495  70.449  0.00  0.00    -0.192 NA
ATOM      6  C   UNL     1     -13.610  14.402  71.498  0.00  0.00    +0.261 A 
ATOM      7  N   UNL     1     -13.526  13.278  72.221  0.00  0.00    -0.171 NA
ATOM      8  C   UNL     1     -12.979  12.140  71.768  0.00  0.00    +0.302 A 
ATOM      9  O   UNL     1     -13.406  10.998  72.114  0.00  0.00    -0.263 OA
ATOM     10  N   UNL     1     -14.469  15.483  71.849  0.00  0.00    -0.086 NA
ATOM     11  C   UNL     1     -12.327  12.191  70.554  0.00  0.00    +0.175 A 
ATOM     12  N   UNL     1     -11.923  11.291  69.637  0.00  0.00    -0.217 NA
ATOM     13  C   UNL     1     -11.561  11.906  68.514  0.00  0.00    +0.182 A 
ENDBRANCH   2   3
ENDBRANCH   1   2
BRANCH   1  14
ATOM     14  C   UNL     1     -10.924  13.913  65.445  0.00  0.00    +0.194 C 
BRANCH  14  15
ATOM     15  C   UNL     1     -11.847  13.287  64.234  0.00  0.00    +0.215 C 
ATOM     16  O   UNL     1     -13.051  12.914  64.709  0.00  0.00    -0.218 OA
ENDBRANCH  14  15
BRANCH  14  17
ATOM     17  C   UNL     1     -11.216  15.485  65.018  0.00  0.00    +0.241 C 
BRANCH  17  18
ATOM     18  O   UNL     1      -9.998  16.157  65.352  0.00  0.00    -0.445 OA
BRANCH  18  19
ATOM     19  C   UNL     1     -10.033  17.350  65.970  0.00  0.00    +0.335 C 
ATOM     20  O   UNL     1     -10.605  18.374  65.486  0.00  0.00    -0.248 OA
BRANCH  19  21
ATOM     21  C   UNL     1     -10.102  17.434  67.578  0.00  0.00    +0.190 C 
ATOM     22  N   UNL     1      -8.866  16.470  67.775  0.00  0.00    -0.121 NA
BRANCH  21  24
ATOM     23  C   UNL     1      -8.511  18.569  68.224  0.00  0.00    +0.002 C 
ATOM     24  C   UNL     1      -9.155  18.778  67.670  0.00  0.00    +0.029 C 
ATOM     25  C   UNL     1      -9.856  19.705  68.660  0.00  0.00    +0.002 C 
ENDBRANCH  21  24
ENDBRANCH  19  21
ENDBRANCH  18  19
ENDBRANCH  17  18
ENDBRANCH  14  17
ENDBRANCH   1  14
TORSDOF 9
ENDMDL
