MODEL 1
REMARK VINA RESULT:     -10.2      0.000      0.000
REMARK  Name = 
REMARK  9 active torsions:
REMARK  status: ('A' for Active; 'I' for Inactive)
REMARK    1  A    between atoms: C_4  and  C_5
REMARK    2  A    between atoms: C_8  and  N_9
REMARK    3  A    between atoms: N_10  and  C_11
REMARK    4  A    between atoms: C_18  and  S_19
REMARK    5  A    between atoms: C_26  and  S_27
REMARK    6  A    between atoms: C_36  and  N_37
REMARK    7  A    between atoms: N_38  and  C_39
REMARK    8  A    between atoms: C_46  and  S_47
REMARK    9  A    between atoms: C_54  and  S_55
REMARK                            x       y       z     vdW  Elec       q    Type
REMARK                         _______ _______ _______ _____ _____    ______ ____
ROOT
ATOM      1  C   UNL     1      -7.144  14.712  67.264  0.00  0.00    +0.033 C 
ATOM      2  C   UNL     1      -8.611  14.541  67.048  0.00  0.00    -0.002 A 
ATOM      3  C   UNL     1      -9.236  15.245  66.027  0.00  0.00    +0.099 A 
ATOM      4  C   UNL     1     -10.614  15.077  65.947  0.00  0.00    +0.021 A 
ATOM      5  C   UNL     1     -11.244  13.968  66.496  0.00  0.00    +0.002 A 
ATOM      6  C   UNL     1     -10.660  13.407  67.622  0.00  0.00    -0.000 A 
ATOM      7  C   UNL     1      -9.313  13.628  67.821  0.00  0.00    -0.003 A 
ENDROOT
BRANCH   6   8
ATOM      8  C   UNL     1     -11.207  12.112  68.044  0.00  0.00    -0.000 A 
ATOM      9  C   UNL     1     -11.973  11.986  69.196  0.00  0.00    -0.003 A 
ATOM     10  C   UNL     1     -11.880  10.803  69.915  0.00  0.00    -0.002 A 
ATOM     11  C   UNL     1     -12.440  10.757  71.281  0.00  0.00    +0.033 C 
ATOM     12  C   UNL     1     -11.260   9.679  69.406  0.00  0.00    +0.099 A 
ATOM     13  C   UNL     1     -10.976   9.694  68.047  0.00  0.00    +0.021 A 
ATOM     14  C   UNL     1     -10.818  10.928  67.441  0.00  0.00    +0.002 A 
BRANCH  12  15
ATOM     15  N   UNL     1     -10.898   8.562  70.193  0.00  0.00    -0.148 NA
ATOM     16  N   UNL     1     -11.452   7.433  70.134  0.00  0.00    -0.143 NA
BRANCH  16  17
ATOM     17  C   UNL     1     -10.745   6.294  70.605  0.00  0.00    +0.161 A 
ATOM     18  C   UNL     1     -10.301   5.356  69.680  0.00  0.00    +0.159 A 
ATOM     19  C   UNL     1      -9.786   4.154  70.145  0.00  0.00    +0.023 A 
ATOM     20  C   UNL     1      -9.796   3.814  71.487  0.00  0.00    +0.007 A 
ATOM     21  C   UNL     1     -10.152   4.770  72.402  0.00  0.00    +0.057 A 
ATOM     22  C   UNL     1     -10.199   4.420  73.745  0.00  0.00    +0.094 A 
ATOM     23  C   UNL     1     -10.078   3.099  74.141  0.00  0.00    +0.039 A 
ATOM     24  C   UNL     1      -9.940   2.093  73.195  0.00  0.00    +0.138 A 
ATOM     25  N   UNL     1     -10.589   5.406  74.696  0.00  0.00    -0.128 NA
ATOM     26  C   UNL     1      -9.594   2.509  71.917  0.00  0.00    +0.021 A 
ATOM     27  C   UNL     1     -10.626   5.984  71.947  0.00  0.00    +0.217 A 
ATOM     28  O   UNL     1     -11.324   6.786  72.835  0.00  0.00    -0.285 OA
BRANCH  24  29
ATOM     29  S   UNL     1     -10.598   0.489  73.492  0.00  0.00    +0.141 S 
ATOM     30  O   UNL     1     -12.050   0.367  72.667  0.00  0.00    -0.043 OA
ATOM     31  O   UNL     1     -10.762   0.326  74.966  0.00  0.00    -0.140 OA
ATOM     32  O   UNL     1      -9.661  -0.548  72.925  0.00  0.00    -0.140 OA
ENDBRANCH  24  29
BRANCH  18  33
ATOM     33  S   UNL     1      -9.907   5.858  68.059  0.00  0.00    +0.142 S 
ATOM     34  O   UNL     1     -11.263   6.392  67.231  0.00  0.00    -0.043 OA
ATOM     35  O   UNL     1      -9.313   4.693  67.307  0.00  0.00    -0.140 OA
ATOM     36  O   UNL     1      -8.853   6.937  68.070  0.00  0.00    -0.140 OA
ENDBRANCH  18  33
ENDBRANCH  16  17
ENDBRANCH  12  15
ENDBRANCH   6   8
BRANCH   3  37
ATOM     37  N   UNL     1      -8.694  16.543  65.757  0.00  0.00    -0.148 NA
ATOM     38  N   UNL     1      -8.375  17.235  66.757  0.00  0.00    -0.143 NA
BRANCH  38  39
ATOM     39  C   UNL     1      -7.516  18.356  66.735  0.00  0.00    +0.161 A 
ATOM     40  C   UNL     1      -8.050  19.590  67.074  0.00  0.00    +0.159 A 
ATOM     41  C   UNL     1      -7.318  20.547  67.765  0.00  0.00    +0.023 A 
ATOM     42  C   UNL     1      -5.999  20.281  68.112  0.00  0.00    +0.007 A 
ATOM     43  C   UNL     1      -5.403  19.106  67.670  0.00  0.00    +0.057 A 
ATOM     44  C   UNL     1      -4.100  18.790  68.030  0.00  0.00    +0.094 A 
ATOM     45  C   UNL     1      -3.630  19.371  69.199  0.00  0.00    +0.039 A 
ATOM     46  C   UNL     1      -4.206  20.516  69.709  0.00  0.00    +0.138 A 
ATOM     47  N   UNL     1      -3.668  17.451  67.764  0.00  0.00    -0.128 NA
ATOM     48  C   UNL     1      -5.346  21.011  69.091  0.00  0.00    +0.021 A 
ATOM     49  C   UNL     1      -6.144  18.220  66.908  0.00  0.00    +0.217 A 
ATOM     50  O   UNL     1      -5.567  17.097  66.318  0.00  0.00    -0.285 OA
BRANCH  46  51
ATOM     51  S   UNL     1      -3.728  21.059  71.313  0.00  0.00    +0.141 S 
ATOM     52  O   UNL     1      -2.101  21.479  71.225  0.00  0.00    -0.043 OA
ATOM     53  O   UNL     1      -3.892  19.952  72.318  0.00  0.00    -0.140 OA
ATOM     54  O   UNL     1      -4.530  22.270  71.656  0.00  0.00    -0.140 OA
ENDBRANCH  46  51
BRANCH  40  55
ATOM     55  S   UNL     1      -9.801  19.749  67.134  0.00  0.00    +0.142 S 
ATOM     56  O   UNL     1     -10.480  18.576  68.133  0.00  0.00    -0.043 OA
ATOM     57  O   UNL     1     -10.156  21.103  67.656  0.00  0.00    -0.140 OA
ATOM     58  O   UNL     1     -10.356  19.570  65.744  0.00  0.00    -0.140 OA
ENDBRANCH  40  55
ENDBRANCH  38  39
ENDBRANCH   3  37
TORSDOF 9
ENDMDL
MODEL 2
REMARK VINA RESULT:      -9.9      0.964      1.631
REMARK  Name = 
REMARK  9 active torsions:
REMARK  status: ('A' for Active; 'I' for Inactive)
REMARK    1  A    between atoms: C_4  and  C_5
REMARK    2  A    between atoms: C_8  and  N_9
REMARK    3  A    between atoms: N_10  and  C_11
REMARK    4  A    between atoms: C_18  and  S_19
REMARK    5  A    between atoms: C_26  and  S_27
REMARK    6  A    between atoms: C_36  and  N_37
REMARK    7  A    between atoms: N_38  and  C_39
REMARK    8  A    between atoms: C_46  and  S_47
REMARK    9  A    between atoms: C_54  and  S_55
REMARK                            x       y       z     vdW  Elec       q    Type
REMARK                         _______ _______ _______ _____ _____    ______ ____
ROOT
ATOM      1  C   UNL     1     -10.794  14.772  64.987  0.00  0.00    +0.033 C 
ATOM      2  C   UNL     1     -10.127  14.069  66.123  0.00  0.00    -0.002 A 
ATOM      3  C   UNL     1      -9.391  14.806  67.043  0.00  0.00    +0.099 A 
ATOM      4  C   UNL     1      -8.749  14.059  68.024  0.00  0.00    +0.021 A 
ATOM      5  C   UNL     1      -9.172  12.779  68.358  0.00  0.00    +0.002 A 
ATOM      6  C   UNL     1      -9.750  12.026  67.346  0.00  0.00    -0.000 A 
ATOM      7  C   UNL     1     -10.311  12.704  66.284  0.00  0.00    -0.003 A 
ENDROOT
BRANCH   6   8
ATOM      8  C   UNL     1     -10.393  10.777  67.773  0.00  0.00    -0.000 A 
ATOM      9  C   UNL     1     -11.272  10.740  68.848  0.00  0.00    -0.003 A 
ATOM     10  C   UNL     1     -11.302   9.593  69.627  0.00  0.00    -0.002 A 
ATOM     11  C   UNL     1     -11.993   9.639  70.932  0.00  0.00    +0.033 C 
ATOM     12  C   UNL     1     -10.686   8.421  69.236  0.00  0.00    +0.099 A 
ATOM     13  C   UNL     1     -10.271   8.355  67.912  0.00  0.00    +0.021 A 
ATOM     14  C   UNL     1     -10.001   9.549  67.268  0.00  0.00    +0.002 A 
BRANCH  12  15
ATOM     15  N   UNL     1     -10.452   7.333  70.107  0.00  0.00    -0.148 NA
ATOM     16  N   UNL     1     -10.969   6.191  69.983  0.00  0.00    -0.143 NA
BRANCH  16  17
ATOM     17  C   UNL     1     -10.339   5.079  70.605  0.00  0.00    +0.161 A 
ATOM     18  C   UNL     1      -9.818   4.073  69.799  0.00  0.00    +0.159 A 
ATOM     19  C   UNL     1      -9.380   2.900  70.398  0.00  0.00    +0.023 A 
ATOM     20  C   UNL     1      -9.540   2.656  71.752  0.00  0.00    +0.007 A 
ATOM     21  C   UNL     1      -9.972   3.679  72.556  0.00  0.00    +0.057 A 
ATOM     22  C   UNL     1     -10.169   3.424  73.907  0.00  0.00    +0.094 A 
ATOM     23  C   UNL     1     -10.118   2.133  74.403  0.00  0.00    +0.039 A 
ATOM     24  C   UNL     1      -9.900   1.061  73.549  0.00  0.00    +0.138 A 
ATOM     25  N   UNL     1     -10.638   4.479  74.740  0.00  0.00    -0.128 NA
ATOM     26  C   UNL     1      -9.412   1.381  72.290  0.00  0.00    +0.021 A 
ATOM     27  C   UNL     1     -10.371   4.863  71.969  0.00  0.00    +0.217 A 
ATOM     28  O   UNL     1     -11.143   5.734  72.720  0.00  0.00    -0.285 OA
BRANCH  24  29
ATOM     29  S   UNL     1     -10.618  -0.509  73.882  0.00  0.00    +0.141 S 
ATOM     30  O   UNL     1     -11.302  -0.450  75.410  0.00  0.00    -0.043 OA
ATOM     31  O   UNL     1      -9.543  -1.538  73.776  0.00  0.00    -0.140 OA
ATOM     32  O   UNL     1     -11.728  -0.771  72.895  0.00  0.00    -0.140 OA
ENDBRANCH  24  29
BRANCH  18  33
ATOM     33  S   UNL     1      -9.244   4.454  68.200  0.00  0.00    +0.142 S 
ATOM     34  O   UNL     1     -10.497   4.917  67.188  0.00  0.00    -0.043 OA
ATOM     35  O   UNL     1      -8.572   3.240  67.609  0.00  0.00    -0.140 OA
ATOM     36  O   UNL     1      -8.195   5.538  68.248  0.00  0.00    -0.140 OA
ENDBRANCH  18  33
ENDBRANCH  16  17
ENDBRANCH  12  15
ENDBRANCH   6   8
BRANCH   3  37
ATOM     37  N   UNL     1      -8.716  15.951  66.511  0.00  0.00    -0.148 NA
ATOM     38  N   UNL     1      -8.459  16.877  67.322  0.00  0.00    -0.143 NA
BRANCH  38  39
ATOM     39  C   UNL     1      -7.514  17.905  67.116  0.00  0.00    +0.161 A 
ATOM     40  C   UNL     1      -7.955  19.218  67.199  0.00  0.00    +0.159 A 
ATOM     41  C   UNL     1      -7.161  20.231  67.720  0.00  0.00    +0.023 A 
ATOM     42  C   UNL     1      -5.873  19.940  68.152  0.00  0.00    +0.007 A 
ATOM     43  C   UNL     1      -5.365  18.661  67.959  0.00  0.00    +0.057 A 
ATOM     44  C   UNL     1      -4.097  18.323  68.413  0.00  0.00    +0.094 A 
ATOM     45  C   UNL     1      -3.602  19.080  69.466  0.00  0.00    +0.039 A 
ATOM     46  C   UNL     1      -4.095  20.340  69.732  0.00  0.00    +0.138 A 
ATOM     47  N   UNL     1      -3.768  16.929  68.418  0.00  0.00    -0.128 NA
ATOM     48  C   UNL     1      -5.181  20.791  68.996  0.00  0.00    +0.021 A 
ATOM     49  C   UNL     1      -6.160  17.704  67.355  0.00  0.00    +0.217 A 
ATOM     50  O   UNL     1      -5.665  16.448  67.006  0.00  0.00    -0.285 OA
BRANCH  46  51
ATOM     51  S   UNL     1      -3.603  21.141  71.219  0.00  0.00    +0.141 S 
ATOM     52  O   UNL     1      -3.752  20.012  72.458  0.00  0.00    -0.043 OA
ATOM     53  O   UNL     1      -4.501  22.311  71.514  0.00  0.00    -0.140 OA
ATOM     54  O   UNL     1      -2.170  21.538  71.087  0.00  0.00    -0.140 OA
ENDBRANCH  46  51
BRANCH  40  55
ATOM     55  S   UNL     1      -9.689  19.515  67.173  0.00  0.00    +0.142 S 
ATOM     56  O   UNL     1     -10.380  18.932  65.753  0.00  0.00    -0.043 OA
ATOM     57  O   UNL     1     -10.324  18.837  68.342  0.00  0.00    -0.140 OA
ATOM     58  O   UNL     1      -9.930  21.002  67.244  0.00  0.00    -0.140 OA
ENDBRANCH  40  55
ENDBRANCH  38  39
ENDBRANCH   3  37
TORSDOF 9
ENDMDL
MODEL 3
REMARK VINA RESULT:      -9.2      2.219      3.317
REMARK  Name = 
REMARK  9 active torsions:
REMARK  status: ('A' for Active; 'I' for Inactive)
REMARK    1  A    between atoms: C_4  and  C_5
REMARK    2  A    between atoms: C_8  and  N_9
REMARK    3  A    between atoms: N_10  and  C_11
REMARK    4  A    between atoms: C_18  and  S_19
REMARK    5  A    between atoms: C_26  and  S_27
REMARK    6  A    between atoms: C_36  and  N_37
REMARK    7  A    between atoms: N_38  and  C_39
REMARK    8  A    between atoms: C_46  and  S_47
REMARK    9  A    between atoms: C_54  and  S_55
REMARK                            x       y       z     vdW  Elec       q    Type
REMARK                         _______ _______ _______ _____ _____    ______ ____
ROOT
ATOM      1  C   UNL     1     -10.491  14.482  64.683  0.00  0.00    +0.033 C 
ATOM      2  C   UNL     1     -10.162  14.048  66.073  0.00  0.00    -0.002 A 
ATOM      3  C   UNL     1      -9.870  15.007  67.035  0.00  0.00    +0.099 A 
ATOM      4  C   UNL     1      -9.507  14.506  68.280  0.00  0.00    +0.021 A 
ATOM      5  C   UNL     1      -9.860  13.224  68.680  0.00  0.00    +0.002 A 
ATOM      6  C   UNL     1      -9.972  12.265  67.684  0.00  0.00    -0.000 A 
ATOM      7  C   UNL     1     -10.222  12.702  66.400  0.00  0.00    -0.003 A 
ENDROOT
BRANCH   6   8
ATOM      8  C   UNL     1     -10.564  10.986  68.096  0.00  0.00    -0.000 A 
ATOM      9  C   UNL     1     -11.241  10.853  69.302  0.00  0.00    -0.003 A 
ATOM     10  C   UNL     1     -11.166   9.635  69.962  0.00  0.00    -0.002 A 
ATOM     11  C   UNL     1     -11.615   9.560  71.366  0.00  0.00    +0.033 C 
ATOM     12  C   UNL     1     -10.661   8.501  69.357  0.00  0.00    +0.099 A 
ATOM     13  C   UNL     1     -10.486   8.562  67.981  0.00  0.00    +0.021 A 
ATOM     14  C   UNL     1     -10.300   9.811  67.416  0.00  0.00    +0.002 A 
BRANCH  12  15
ATOM     15  N   UNL     1     -10.308   7.330  70.066  0.00  0.00    -0.148 NA
ATOM     16  N   UNL     1     -10.974   6.261  70.061  0.00  0.00    -0.143 NA
BRANCH  16  17
ATOM     17  C   UNL     1     -10.326   5.045  70.409  0.00  0.00    +0.161 A 
ATOM     18  C   UNL     1     -10.020   4.814  71.745  0.00  0.00    +0.159 A 
ATOM     19  C   UNL     1      -9.218   3.726  72.066  0.00  0.00    +0.023 A 
ATOM     20  C   UNL     1      -8.629   2.930  71.098  0.00  0.00    +0.007 A 
ATOM     21  C   UNL     1      -9.000   3.105  69.790  0.00  0.00    +0.057 A 
ATOM     22  C   UNL     1      -8.383   2.333  68.815  0.00  0.00    +0.094 A 
ATOM     23  C   UNL     1      -7.288   1.544  69.120  0.00  0.00    +0.039 A 
ATOM     24  C   UNL     1      -6.766   1.534  70.406  0.00  0.00    +0.138 A 
ATOM     25  N   UNL     1      -8.751   2.529  67.453  0.00  0.00    -0.128 NA
ATOM     26  C   UNL     1      -7.583   2.065  71.393  0.00  0.00    +0.021 A 
ATOM     27  C   UNL     1      -9.831   4.160  69.469  0.00  0.00    +0.217 A 
ATOM     28  O   UNL     1      -9.899   4.558  68.144  0.00  0.00    -0.285 OA
BRANCH  24  29
ATOM     29  S   UNL     1      -5.044   1.293  70.670  0.00  0.00    +0.141 S 
ATOM     30  O   UNL     1      -4.689  -0.309  70.334  0.00  0.00    -0.043 OA
ATOM     31  O   UNL     1      -4.740   1.663  72.083  0.00  0.00    -0.140 OA
ATOM     32  O   UNL     1      -4.265   2.146  69.700  0.00  0.00    -0.140 OA
ENDBRANCH  24  29
BRANCH  18  33
ATOM     33  S   UNL     1     -11.011   5.512  72.995  0.00  0.00    +0.142 S 
ATOM     34  O   UNL     1     -12.603   5.679  72.499  0.00  0.00    -0.043 OA
ATOM     35  O   UNL     1     -10.474   6.876  73.353  0.00  0.00    -0.140 OA
ATOM     36  O   UNL     1     -10.948   4.688  74.256  0.00  0.00    -0.140 OA
ENDBRANCH  18  33
ENDBRANCH  16  17
ENDBRANCH  12  15
ENDBRANCH   6   8
BRANCH   3  37
ATOM     37  N   UNL     1      -9.200  16.176  66.552  0.00  0.00    -0.148 NA
ATOM     38  N   UNL     1      -8.742  16.959  67.422  0.00  0.00    -0.143 NA
BRANCH  38  39
ATOM     39  C   UNL     1      -7.763  17.951  67.196  0.00  0.00    +0.161 A 
ATOM     40  C   UNL     1      -8.153  19.280  67.280  0.00  0.00    +0.159 A 
ATOM     41  C   UNL     1      -7.313  20.265  67.783  0.00  0.00    +0.023 A 
ATOM     42  C   UNL     1      -6.030  19.927  68.196  0.00  0.00    +0.007 A 
ATOM     43  C   UNL     1      -5.574  18.629  68.000  0.00  0.00    +0.057 A 
ATOM     44  C   UNL     1      -4.312  18.246  68.435  0.00  0.00    +0.094 A 
ATOM     45  C   UNL     1      -3.772  18.988  69.476  0.00  0.00    +0.039 A 
ATOM     46  C   UNL     1      -4.213  20.268  69.744  0.00  0.00    +0.138 A 
ATOM     47  N   UNL     1      -4.035  16.841  68.442  0.00  0.00    -0.128 NA
ATOM     48  C   UNL     1      -5.294  20.756  69.024  0.00  0.00    +0.021 A 
ATOM     49  C   UNL     1      -6.414  17.700  67.414  0.00  0.00    +0.217 A 
ATOM     50  O   UNL     1      -5.971  16.426  67.063  0.00  0.00    -0.285 OA
BRANCH  46  51
ATOM     51  S   UNL     1      -3.667  21.056  71.219  0.00  0.00    +0.141 S 
ATOM     52  O   UNL     1      -2.067  21.518  70.967  0.00  0.00    -0.043 OA
ATOM     53  O   UNL     1      -3.721  20.103  72.382  0.00  0.00    -0.140 OA
ATOM     54  O   UNL     1      -4.500  22.275  71.436  0.00  0.00    -0.140 OA
ENDBRANCH  46  51
BRANCH  40  55
ATOM     55  S   UNL     1      -9.875  19.642  67.281  0.00  0.00    +0.142 S 
ATOM     56  O   UNL     1     -10.578  19.236  65.806  0.00  0.00    -0.043 OA
ATOM     57  O   UNL     1     -10.541  18.869  68.371  0.00  0.00    -0.140 OA
ATOM     58  O   UNL     1     -10.063  21.120  67.507  0.00  0.00    -0.140 OA
ENDBRANCH  40  55
ENDBRANCH  38  39
ENDBRANCH   3  37
TORSDOF 9
ENDMDL
MODEL 4
REMARK VINA RESULT:      -9.1      3.526     15.295
REMARK  Name = 
REMARK  9 active torsions:
REMARK  status: ('A' for Active; 'I' for Inactive)
REMARK    1  A    between atoms: C_4  and  C_5
REMARK    2  A    between atoms: C_8  and  N_9
REMARK    3  A    between atoms: N_10  and  C_11
REMARK    4  A    between atoms: C_18  and  S_19
REMARK    5  A    between atoms: C_26  and  S_27
REMARK    6  A    between atoms: C_36  and  N_37
REMARK    7  A    between atoms: N_38  and  C_39
REMARK    8  A    between atoms: C_46  and  S_47
REMARK    9  A    between atoms: C_54  and  S_55
REMARK                            x       y       z     vdW  Elec       q    Type
REMARK                         _______ _______ _______ _____ _____    ______ ____
ROOT
ATOM      1  C   UNL     1      -9.399   3.190  67.023  0.00  0.00    +0.033 C 
ATOM      2  C   UNL     1      -9.212   4.496  67.723  0.00  0.00    -0.002 A 
ATOM      3  C   UNL     1      -8.760   4.507  69.036  0.00  0.00    +0.099 A 
ATOM      4  C   UNL     1      -8.684   5.762  69.627  0.00  0.00    +0.021 A 
ATOM      5  C   UNL     1      -8.595   6.921  68.866  0.00  0.00    +0.002 A 
ATOM      6  C   UNL     1      -9.214   6.905  67.625  0.00  0.00    -0.000 A 
ATOM      7  C   UNL     1      -9.421   5.679  67.030  0.00  0.00    -0.003 A 
ENDROOT
BRANCH   6   8
ATOM      8  C   UNL     1      -8.915   8.045  66.751  0.00  0.00    -0.000 A 
ATOM      9  C   UNL     1      -7.819   8.869  66.979  0.00  0.00    -0.003 A 
ATOM     10  C   UNL     1      -7.933  10.212  66.650  0.00  0.00    -0.002 A 
ATOM     11  C   UNL     1      -6.913  11.155  67.152  0.00  0.00    +0.033 C 
ATOM     12  C   UNL     1      -8.981  10.698  65.894  0.00  0.00    +0.099 A 
ATOM     13  C   UNL     1      -9.765   9.752  65.247  0.00  0.00    +0.021 A 
ATOM     14  C   UNL     1      -9.812   8.481  65.792  0.00  0.00    +0.002 A 
BRANCH  12  15
ATOM     15  N   UNL     1      -9.287  12.073  65.775  0.00  0.00    -0.148 NA
ATOM     16  N   UNL     1     -10.241  12.648  66.361  0.00  0.00    -0.143 NA
BRANCH  16  17
ATOM     17  C   UNL     1     -10.189  14.057  66.542  0.00  0.00    +0.161 A 
ATOM     18  C   UNL     1     -10.738  14.873  65.559  0.00  0.00    +0.159 A 
ATOM     19  C   UNL     1     -10.519  16.242  65.633  0.00  0.00    +0.023 A 
ATOM     20  C   UNL     1      -9.689  16.809  66.585  0.00  0.00    +0.007 A 
ATOM     21  C   UNL     1      -9.221  16.017  67.601  0.00  0.00    +0.057 A 
ATOM     22  C   UNL     1      -8.358  16.575  68.535  0.00  0.00    +0.094 A 
ATOM     23  C   UNL     1      -7.829  17.840  68.348  0.00  0.00    +0.039 A 
ATOM     24  C   UNL     1      -8.127  18.564  67.202  0.00  0.00    +0.138 A 
ATOM     25  N   UNL     1      -7.852  15.749  69.578  0.00  0.00    -0.128 NA
ATOM     26  C   UNL     1      -9.210  18.108  66.465  0.00  0.00    +0.021 A 
ATOM     27  C   UNL     1      -9.470  14.660  67.556  0.00  0.00    +0.217 A 
ATOM     28  O   UNL     1      -8.699  13.828  68.351  0.00  0.00    -0.285 OA
BRANCH  24  29
ATOM     29  S   UNL     1      -6.950  19.674  66.513  0.00  0.00    +0.141 S 
ATOM     30  O   UNL     1      -7.183  21.176  67.216  0.00  0.00    -0.043 OA
ATOM     31  O   UNL     1      -7.150  19.696  65.035  0.00  0.00    -0.140 OA
ATOM     32  O   UNL     1      -5.559  19.213  66.871  0.00  0.00    -0.140 OA
ENDBRANCH  24  29
BRANCH  18  33
ATOM     33  S   UNL     1     -12.069  14.295  64.596  0.00  0.00    +0.142 S 
ATOM     34  O   UNL     1     -11.582  13.103  63.523  0.00  0.00    -0.043 OA
ATOM     35  O   UNL     1     -12.649  15.442  63.808  0.00  0.00    -0.140 OA
ATOM     36  O   UNL     1     -13.183  13.777  65.472  0.00  0.00    -0.140 OA
ENDBRANCH  18  33
ENDBRANCH  16  17
ENDBRANCH  12  15
ENDBRANCH   6   8
BRANCH   3  37
ATOM     37  N   UNL     1      -9.190   3.402  69.841  0.00  0.00    -0.148 NA
ATOM     38  N   UNL     1      -8.810   3.402  71.040  0.00  0.00    -0.143 NA
BRANCH  38  39
ATOM     39  C   UNL     1      -9.386   2.639  72.079  0.00  0.00    +0.161 A 
ATOM     40  C   UNL     1     -10.016   3.319  73.111  0.00  0.00    +0.159 A 
ATOM     41  C   UNL     1     -11.151   2.822  73.739  0.00  0.00    +0.023 A 
ATOM     42  C   UNL     1     -11.667   1.593  73.347  0.00  0.00    +0.007 A 
ATOM     43  C   UNL     1     -10.979   0.835  72.407  0.00  0.00    +0.057 A 
ATOM     44  C   UNL     1     -11.486  -0.380  71.964  0.00  0.00    +0.094 A 
ATOM     45  C   UNL     1     -12.859  -0.546  72.071  0.00  0.00    +0.039 A 
ATOM     46  C   UNL     1     -13.602   0.206  72.958  0.00  0.00    +0.138 A 
ATOM     47  N   UNL     1     -10.862  -0.951  70.809  0.00  0.00    -0.128 NA
ATOM     48  C   UNL     1     -12.963   1.219  73.659  0.00  0.00    +0.021 A 
ATOM     49  C   UNL     1      -9.804   1.330  71.871  0.00  0.00    +0.217 A 
ATOM     50  O   UNL     1      -8.996   0.563  71.034  0.00  0.00    -0.285 OA
BRANCH  46  51
ATOM     51  S   UNL     1     -15.357   0.123  72.870  0.00  0.00    +0.141 S 
ATOM     52  O   UNL     1     -15.957   1.079  74.120  0.00  0.00    -0.043 OA
ATOM     53  O   UNL     1     -15.832  -1.290  73.066  0.00  0.00    -0.140 OA
ATOM     54  O   UNL     1     -15.789   0.699  71.563  0.00  0.00    -0.140 OA
ENDBRANCH  46  51
BRANCH  40  55
ATOM     55  S   UNL     1      -9.732   5.050  73.260  0.00  0.00    +0.142 S 
ATOM     56  O   UNL     1      -8.107   5.418  73.024  0.00  0.00    -0.043 OA
ATOM     57  O   UNL     1     -10.552   5.774  72.244  0.00  0.00    -0.140 OA
ATOM     58  O   UNL     1     -10.124   5.491  74.648  0.00  0.00    -0.140 OA
ENDBRANCH  40  55
ENDBRANCH  38  39
ENDBRANCH   3  37
TORSDOF 9
ENDMDL
MODEL 5
REMARK VINA RESULT:      -8.9      4.058     14.520
REMARK  Name = 
REMARK  9 active torsions:
REMARK  status: ('A' for Active; 'I' for Inactive)
REMARK    1  A    between atoms: C_4  and  C_5
REMARK    2  A    between atoms: C_8  and  N_9
REMARK    3  A    between atoms: N_10  and  C_11
REMARK    4  A    between atoms: C_18  and  S_19
REMARK    5  A    between atoms: C_26  and  S_27
REMARK    6  A    between atoms: C_36  and  N_37
REMARK    7  A    between atoms: N_38  and  C_39
REMARK    8  A    between atoms: C_46  and  S_47
REMARK    9  A    between atoms: C_54  and  S_55
REMARK                            x       y       z     vdW  Elec       q    Type
REMARK                         _______ _______ _______ _____ _____    ______ ____
ROOT
ATOM      1  C   UNL     1      -7.156   8.437  73.410  0.00  0.00    +0.033 C 
ATOM      2  C   UNL     1      -8.531   7.974  73.056  0.00  0.00    -0.002 A 
ATOM      3  C   UNL     1      -9.318   7.368  74.028  0.00  0.00    +0.099 A 
ATOM      4  C   UNL     1     -10.553   6.907  73.589  0.00  0.00    +0.021 A 
ATOM      5  C   UNL     1     -11.154   7.414  72.444  0.00  0.00    +0.002 A 
ATOM      6  C   UNL     1     -10.310   7.850  71.433  0.00  0.00    -0.000 A 
ATOM      7  C   UNL     1      -9.029   8.220  71.785  0.00  0.00    -0.003 A 
ENDROOT
BRANCH   6   8
ATOM      8  C   UNL     1     -10.956   8.587  70.340  0.00  0.00    -0.000 A 
ATOM      9  C   UNL     1     -10.670   8.311  69.008  0.00  0.00    -0.003 A 
ATOM     10  C   UNL     1     -10.703   9.362  68.103  0.00  0.00    -0.002 A 
ATOM     11  C   UNL     1     -10.119   9.161  66.761  0.00  0.00    +0.033 C 
ATOM     12  C   UNL     1     -11.237  10.593  68.424  0.00  0.00    +0.099 A 
ATOM     13  C   UNL     1     -11.986  10.655  69.592  0.00  0.00    +0.021 A 
ATOM     14  C   UNL     1     -11.712   9.721  70.575  0.00  0.00    +0.002 A 
BRANCH  12  15
ATOM     15  N   UNL     1     -11.040  11.758  67.646  0.00  0.00    -0.148 NA
ATOM     16  N   UNL     1     -11.962  12.515  67.243  0.00  0.00    -0.143 NA
BRANCH  16  17
ATOM     17  C   UNL     1     -11.645  13.853  66.883  0.00  0.00    +0.161 A 
ATOM     18  C   UNL     1     -11.315  14.124  65.560  0.00  0.00    +0.159 A 
ATOM     19  C   UNL     1     -10.817  15.381  65.243  0.00  0.00    +0.023 A 
ATOM     20  C   UNL     1     -10.541  16.334  66.210  0.00  0.00    +0.007 A 
ATOM     21  C   UNL     1     -10.947  16.097  67.497  0.00  0.00    +0.057 A 
ATOM     22  C   UNL     1     -10.637  17.034  68.474  0.00  0.00    +0.094 A 
ATOM     23  C   UNL     1      -9.779  18.086  68.205  0.00  0.00    +0.039 A 
ATOM     24  C   UNL     1      -9.185  18.205  66.957  0.00  0.00    +0.138 A 
ATOM     25  N   UNL     1     -11.039  16.781  69.817  0.00  0.00    -0.128 NA
ATOM     26  C   UNL     1      -9.750  17.444  65.944  0.00  0.00    +0.021 A 
ATOM     27  C   UNL     1     -11.481  14.863  67.811  0.00  0.00    +0.217 A 
ATOM     28  O   UNL     1     -11.537  14.497  69.146  0.00  0.00    -0.285 OA
BRANCH  24  29
ATOM     29  S   UNL     1      -7.578  18.903  66.794  0.00  0.00    +0.141 S 
ATOM     30  O   UNL     1      -7.632  20.468  67.387  0.00  0.00    -0.043 OA
ATOM     31  O   UNL     1      -7.199  18.849  65.352  0.00  0.00    -0.140 OA
ATOM     32  O   UNL     1      -6.607  18.124  67.645  0.00  0.00    -0.140 OA
ENDBRANCH  24  29
BRANCH  18  33
ATOM     33  S   UNL     1     -11.982  13.148  64.282  0.00  0.00    +0.142 S 
ATOM     34  O   UNL     1     -10.849  12.077  63.667  0.00  0.00    -0.043 OA
ATOM     35  O   UNL     1     -12.452  14.044  63.164  0.00  0.00    -0.140 OA
ATOM     36  O   UNL     1     -13.198  12.393  64.760  0.00  0.00    -0.140 OA
ENDBRANCH  18  33
ENDBRANCH  16  17
ENDBRANCH  12  15
ENDBRANCH   6   8
BRANCH   3  37
ATOM     37  N   UNL     1      -8.605   6.586  74.993  0.00  0.00    -0.148 NA
ATOM     38  N   UNL     1      -8.459   5.366  74.727  0.00  0.00    -0.143 NA
BRANCH  38  39
ATOM     39  C   UNL     1      -7.513   4.506  75.327  0.00  0.00    +0.161 A 
ATOM     40  C   UNL     1      -7.976   3.329  75.896  0.00  0.00    +0.159 A 
ATOM     41  C   UNL     1      -7.241   2.151  75.858  0.00  0.00    +0.023 A 
ATOM     42  C   UNL     1      -5.989   2.145  75.256  0.00  0.00    +0.007 A 
ATOM     43  C   UNL     1      -5.450   3.340  74.795  0.00  0.00    +0.057 A 
ATOM     44  C   UNL     1      -4.219   3.365  74.153  0.00  0.00    +0.094 A 
ATOM     45  C   UNL     1      -3.821   2.182  73.546  0.00  0.00    +0.039 A 
ATOM     46  C   UNL     1      -4.350   0.968  73.933  0.00  0.00    +0.138 A 
ATOM     47  N   UNL     1      -3.874   4.578  73.475  0.00  0.00    -0.128 NA
ATOM     48  C   UNL     1      -5.379   0.965  74.864  0.00  0.00    +0.021 A 
ATOM     49  C   UNL     1      -6.181   4.506  74.933  0.00  0.00    +0.217 A 
ATOM     50  O   UNL     1      -5.643   5.753  74.621  0.00  0.00    -0.285 OA
BRANCH  46  51
ATOM     51  S   UNL     1      -3.991  -0.456  72.964  0.00  0.00    +0.141 S 
ATOM     52  O   UNL     1      -4.561  -1.789  73.820  0.00  0.00    -0.043 OA
ATOM     53  O   UNL     1      -2.507  -0.602  72.766  0.00  0.00    -0.140 OA
ATOM     54  O   UNL     1      -4.735  -0.347  71.675  0.00  0.00    -0.140 OA
ENDBRANCH  46  51
BRANCH  40  55
ATOM     55  S   UNL     1      -9.706   3.164  76.173  0.00  0.00    +0.142 S 
ATOM     56  O   UNL     1     -10.553   3.163  74.718  0.00  0.00    -0.043 OA
ATOM     57  O   UNL     1      -9.970   1.883  76.895  0.00  0.00    -0.140 OA
ATOM     58  O   UNL     1     -10.182   4.331  77.000  0.00  0.00    -0.140 OA
ENDBRANCH  40  55
ENDBRANCH  38  39
ENDBRANCH   3  37
TORSDOF 9
ENDMDL
MODEL 6
REMARK VINA RESULT:      -8.8      2.881     14.536
REMARK  Name = 
REMARK  9 active torsions:
REMARK  status: ('A' for Active; 'I' for Inactive)
REMARK    1  A    between atoms: C_4  and  C_5
REMARK    2  A    between atoms: C_8  and  N_9
REMARK    3  A    between atoms: N_10  and  C_11
REMARK    4  A    between atoms: C_18  and  S_19
REMARK    5  A    between atoms: C_26  and  S_27
REMARK    6  A    between atoms: C_36  and  N_37
REMARK    7  A    between atoms: N_38  and  C_39
REMARK    8  A    between atoms: C_46  and  S_47
REMARK    9  A    between atoms: C_54  and  S_55
REMARK                            x       y       z     vdW  Elec       q    Type
REMARK                         _______ _______ _______ _____ _____    ______ ____
ROOT
ATOM      1  C   UNL     1     -13.049   9.629  71.797  0.00  0.00    +0.033 C 
ATOM      2  C   UNL     1     -12.083   9.938  70.703  0.00  0.00    -0.002 A 
ATOM      3  C   UNL     1     -11.460   8.896  70.028  0.00  0.00    +0.099 A 
ATOM      4  C   UNL     1     -10.524   9.281  69.075  0.00  0.00    +0.021 A 
ATOM      5  C   UNL     1     -10.545  10.547  68.503  0.00  0.00    +0.002 A 
ATOM      6  C   UNL     1     -11.025  11.583  69.291  0.00  0.00    -0.000 A 
ATOM      7  C   UNL     1     -11.874  11.257  70.328  0.00  0.00    -0.003 A 
ENDROOT
BRANCH   6   8
ATOM      8  C   UNL     1     -11.253  12.856  68.597  0.00  0.00    -0.000 A 
ATOM      9  C   UNL     1     -11.022  12.993  67.234  0.00  0.00    -0.003 A 
ATOM     10  C   UNL     1     -10.575  14.221  66.769  0.00  0.00    -0.002 A 
ATOM     11  C   UNL     1     -10.041  14.308  65.395  0.00  0.00    +0.033 C 
ATOM     12  C   UNL     1     -10.589  15.356  67.556  0.00  0.00    +0.099 A 
ATOM     13  C   UNL     1     -11.319  15.279  68.735  0.00  0.00    +0.021 A 
ATOM     14  C   UNL     1     -11.503  14.027  69.291  0.00  0.00    +0.002 A 
BRANCH  12  15
ATOM     15  N   UNL     1      -9.894  16.543  67.228  0.00  0.00    -0.148 NA
ATOM     16  N   UNL     1      -8.879  16.971  67.838  0.00  0.00    -0.143 NA
BRANCH  16  17
ATOM     17  C   UNL     1      -8.011  17.881  67.176  0.00  0.00    +0.161 A 
ATOM     18  C   UNL     1      -8.517  19.114  66.780  0.00  0.00    +0.159 A 
ATOM     19  C   UNL     1      -7.737  19.923  65.966  0.00  0.00    +0.023 A 
ATOM     20  C   UNL     1      -6.522  19.503  65.449  0.00  0.00    +0.007 A 
ATOM     21  C   UNL     1      -5.987  18.327  65.908  0.00  0.00    +0.057 A 
ATOM     22  C   UNL     1      -4.788  17.886  65.364  0.00  0.00    +0.094 A 
ATOM     23  C   UNL     1      -4.238  18.506  64.256  0.00  0.00    +0.039 A 
ATOM     24  C   UNL     1      -4.895  19.567  63.647  0.00  0.00    +0.138 A 
ATOM     25  N   UNL     1      -4.241  16.654  65.823  0.00  0.00    -0.128 NA
ATOM     26  C   UNL     1      -5.906  20.158  64.391  0.00  0.00    +0.021 A 
ATOM     27  C   UNL     1      -6.742  17.537  66.752  0.00  0.00    +0.217 A 
ATOM     28  O   UNL     1      -6.372  16.211  66.908  0.00  0.00    -0.285 OA
BRANCH  24  29
ATOM     29  S   UNL     1      -4.760  19.825  61.912  0.00  0.00    +0.141 S 
ATOM     30  O   UNL     1      -4.514  18.336  61.187  0.00  0.00    -0.043 OA
ATOM     31  O   UNL     1      -3.632  20.771  61.675  0.00  0.00    -0.140 OA
ATOM     32  O   UNL     1      -6.061  20.379  61.387  0.00  0.00    -0.140 OA
ENDBRANCH  24  29
BRANCH  18  33
ATOM     33  S   UNL     1      -9.817  19.846  67.679  0.00  0.00    +0.142 S 
ATOM     34  O   UNL     1     -11.311  19.267  67.186  0.00  0.00    -0.043 OA
ATOM     35  O   UNL     1      -9.788  21.339  67.470  0.00  0.00    -0.140 OA
ATOM     36  O   UNL     1      -9.641  19.621  69.160  0.00  0.00    -0.140 OA
ENDBRANCH  18  33
ENDBRANCH  16  17
ENDBRANCH  12  15
ENDBRANCH   6   8
BRANCH   3  37
ATOM     37  N   UNL     1     -11.186   7.732  70.817  0.00  0.00    -0.148 NA
ATOM     38  N   UNL     1     -11.282   6.624  70.231  0.00  0.00    -0.143 NA
BRANCH  38  39
ATOM     39  C   UNL     1     -10.726   5.408  70.687  0.00  0.00    +0.161 A 
ATOM     40  C   UNL     1      -9.746   4.810  69.908  0.00  0.00    +0.159 A 
ATOM     41  C   UNL     1      -8.677   4.121  70.468  0.00  0.00    +0.023 A 
ATOM     42  C   UNL     1      -8.589   3.999  71.849  0.00  0.00    +0.007 A 
ATOM     43  C   UNL     1      -9.626   4.476  72.641  0.00  0.00    +0.057 A 
ATOM     44  C   UNL     1      -9.554   4.406  74.026  0.00  0.00    +0.094 A 
ATOM     45  C   UNL     1      -8.278   4.345  74.570  0.00  0.00    +0.039 A 
ATOM     46  C   UNL     1      -7.202   3.917  73.821  0.00  0.00    +0.138 A 
ATOM     47  N   UNL     1     -10.525   5.160  74.758  0.00  0.00    -0.128 NA
ATOM     48  C   UNL     1      -7.400   3.660  72.472  0.00  0.00    +0.021 A 
ATOM     49  C   UNL     1     -10.715   5.078  72.036  0.00  0.00    +0.217 A 
ATOM     50  O   UNL     1     -11.847   5.450  72.760  0.00  0.00    -0.285 OA
BRANCH  46  51
ATOM     51  S   UNL     1      -5.584   4.098  74.488  0.00  0.00    +0.141 S 
ATOM     52  O   UNL     1      -4.535   4.295  73.187  0.00  0.00    -0.043 OA
ATOM     53  O   UNL     1      -5.186   2.867  75.254  0.00  0.00    -0.140 OA
ATOM     54  O   UNL     1      -5.559   5.331  75.329  0.00  0.00    -0.140 OA
ENDBRANCH  46  51
BRANCH  40  55
ATOM     55  S   UNL     1      -9.533   5.381  68.257  0.00  0.00    +0.142 S 
ATOM     56  O   UNL     1     -11.013   5.778  67.560  0.00  0.00    -0.043 OA
ATOM     57  O   UNL     1      -8.653   6.587  68.262  0.00  0.00    -0.140 OA
ATOM     58  O   UNL     1      -8.900   4.284  67.439  0.00  0.00    -0.140 OA
ENDBRANCH  40  55
ENDBRANCH  38  39
ENDBRANCH   3  37
TORSDOF 9
ENDMDL
MODEL 7
REMARK VINA RESULT:      -8.6      2.782     14.417
REMARK  Name = 
REMARK  9 active torsions:
REMARK  status: ('A' for Active; 'I' for Inactive)
REMARK    1  A    between atoms: C_4  and  C_5
REMARK    2  A    between atoms: C_8  and  N_9
REMARK    3  A    between atoms: N_10  and  C_11
REMARK    4  A    between atoms: C_18  and  S_19
REMARK    5  A    between atoms: C_26  and  S_27
REMARK    6  A    between atoms: C_36  and  N_37
REMARK    7  A    between atoms: N_38  and  C_39
REMARK    8  A    between atoms: C_46  and  S_47
REMARK    9  A    between atoms: C_54  and  S_55
REMARK                            x       y       z     vdW  Elec       q    Type
REMARK                         _______ _______ _______ _____ _____    ______ ____
ROOT
ATOM      1  C   UNL     1      -8.339   9.163  70.402  0.00  0.00    +0.033 C 
ATOM      2  C   UNL     1      -9.754   9.619  70.265  0.00  0.00    -0.002 A 
ATOM      3  C   UNL     1     -10.713   9.138  71.148  0.00  0.00    +0.099 A 
ATOM      4  C   UNL     1     -12.014   9.561  70.901  0.00  0.00    +0.021 A 
ATOM      5  C   UNL     1     -12.278  10.711  70.167  0.00  0.00    +0.002 A 
ATOM      6  C   UNL     1     -11.364  11.048  69.180  0.00  0.00    -0.000 A 
ATOM      7  C   UNL     1     -10.078  10.567  69.307  0.00  0.00    -0.003 A 
ENDROOT
BRANCH   6   8
ATOM      8  C   UNL     1     -11.538  12.376  68.579  0.00  0.00    -0.000 A 
ATOM      9  C   UNL     1     -11.425  12.577  67.209  0.00  0.00    -0.003 A 
ATOM     10  C   UNL     1     -10.913  13.788  66.767  0.00  0.00    -0.002 A 
ATOM     11  C   UNL     1     -10.503  13.912  65.354  0.00  0.00    +0.033 C 
ATOM     12  C   UNL     1     -10.749  14.869  67.610  0.00  0.00    +0.099 A 
ATOM     13  C   UNL     1     -11.370  14.784  68.850  0.00  0.00    +0.021 A 
ATOM     14  C   UNL     1     -11.615  13.520  69.355  0.00  0.00    +0.002 A 
BRANCH  12  15
ATOM     15  N   UNL     1      -9.982  16.010  67.278  0.00  0.00    -0.148 NA
ATOM     16  N   UNL     1      -9.254  16.644  68.087  0.00  0.00    -0.143 NA
BRANCH  16  17
ATOM     17  C   UNL     1      -8.206  17.457  67.577  0.00  0.00    +0.161 A 
ATOM     18  C   UNL     1      -8.518  18.730  67.112  0.00  0.00    +0.159 A 
ATOM     19  C   UNL     1      -7.541  19.450  66.437  0.00  0.00    +0.023 A 
ATOM     20  C   UNL     1      -6.308  18.906  66.119  0.00  0.00    +0.007 A 
ATOM     21  C   UNL     1      -5.972  17.688  66.652  0.00  0.00    +0.057 A 
ATOM     22  C   UNL     1      -4.751  17.125  66.304  0.00  0.00    +0.094 A 
ATOM     23  C   UNL     1      -3.973  17.677  65.301  0.00  0.00    +0.039 A 
ATOM     24  C   UNL     1      -4.415  18.791  64.601  0.00  0.00    +0.138 A 
ATOM     25  N   UNL     1      -4.409  15.850  66.838  0.00  0.00    -0.128 NA
ATOM     26  C   UNL     1      -5.469  19.487  65.177  0.00  0.00    +0.021 A 
ATOM     27  C   UNL     1      -6.926  16.985  67.360  0.00  0.00    +0.217 A 
ATOM     28  O   UNL     1      -6.718  15.631  67.565  0.00  0.00    -0.285 OA
BRANCH  24  29
ATOM     29  S   UNL     1      -3.981  19.016  62.912  0.00  0.00    +0.141 S 
ATOM     30  O   UNL     1      -5.356  19.496  62.085  0.00  0.00    -0.043 OA
ATOM     31  O   UNL     1      -3.427  17.727  62.404  0.00  0.00    -0.140 OA
ATOM     32  O   UNL     1      -2.969  20.129  62.801  0.00  0.00    -0.140 OA
ENDBRANCH  24  29
BRANCH  18  33
ATOM     33  S   UNL     1      -9.865  19.596  67.796  0.00  0.00    +0.142 S 
ATOM     34  O   UNL     1     -11.330  18.949  67.300  0.00  0.00    -0.043 OA
ATOM     35  O   UNL     1      -9.805  21.038  67.358  0.00  0.00    -0.140 OA
ATOM     36  O   UNL     1      -9.791  19.606  69.302  0.00  0.00    -0.140 OA
ENDBRANCH  18  33
ENDBRANCH  16  17
ENDBRANCH  12  15
ENDBRANCH   6   8
BRANCH   3  37
ATOM     37  N   UNL     1     -10.511   7.794  71.600  0.00  0.00    -0.148 NA
ATOM     38  N   UNL     1     -11.139   6.896  70.983  0.00  0.00    -0.143 NA
BRANCH  38  39
ATOM     39  C   UNL     1     -10.831   5.518  71.010  0.00  0.00    +0.161 A 
ATOM     40  C   UNL     1     -10.204   4.972  69.900  0.00  0.00    +0.159 A 
ATOM     41  C   UNL     1      -9.256   3.963  70.009  0.00  0.00    +0.023 A 
ATOM     42  C   UNL     1      -8.935   3.457  71.263  0.00  0.00    +0.007 A 
ATOM     43  C   UNL     1      -9.643   3.897  72.374  0.00  0.00    +0.057 A 
ATOM     44  C   UNL     1      -9.324   3.443  73.648  0.00  0.00    +0.094 A 
ATOM     45  C   UNL     1      -8.024   2.990  73.828  0.00  0.00    +0.039 A 
ATOM     46  C   UNL     1      -7.257   2.578  72.757  0.00  0.00    +0.138 A 
ATOM     47  N   UNL     1      -9.912   4.148  74.746  0.00  0.00    -0.128 NA
ATOM     48  C   UNL     1      -7.772   2.737  71.478  0.00  0.00    +0.021 A 
ATOM     49  C   UNL     1     -10.641   4.841  72.208  0.00  0.00    +0.217 A 
ATOM     50  O   UNL     1     -11.480   5.218  73.255  0.00  0.00    -0.285 OA
BRANCH  46  51
ATOM     51  S   UNL     1      -5.549   2.252  73.020  0.00  0.00    +0.141 S 
ATOM     52  O   UNL     1      -4.717   2.903  71.709  0.00  0.00    -0.043 OA
ATOM     53  O   UNL     1      -5.293   0.771  73.073  0.00  0.00    -0.140 OA
ATOM     54  O   UNL     1      -5.124   2.953  74.267  0.00  0.00    -0.140 OA
ENDBRANCH  46  51
BRANCH  40  55
ATOM     55  S   UNL     1     -10.178   5.913  68.413  0.00  0.00    +0.142 S 
ATOM     56  O   UNL     1     -10.241   4.910  67.062  0.00  0.00    -0.043 OA
ATOM     57  O   UNL     1     -11.351   6.837  68.393  0.00  0.00    -0.140 OA
ATOM     58  O   UNL     1      -8.896   6.705  68.358  0.00  0.00    -0.140 OA
ENDBRANCH  40  55
ENDBRANCH  38  39
ENDBRANCH   3  37
TORSDOF 9
ENDMDL
MODEL 8
REMARK VINA RESULT:      -8.5      2.794     14.793
REMARK  Name = 
REMARK  9 active torsions:
REMARK  status: ('A' for Active; 'I' for Inactive)
REMARK    1  A    between atoms: C_4  and  C_5
REMARK    2  A    between atoms: C_8  and  N_9
REMARK    3  A    between atoms: N_10  and  C_11
REMARK    4  A    between atoms: C_18  and  S_19
REMARK    5  A    between atoms: C_26  and  S_27
REMARK    6  A    between atoms: C_36  and  N_37
REMARK    7  A    between atoms: N_38  and  C_39
REMARK    8  A    between atoms: C_46  and  S_47
REMARK    9  A    between atoms: C_54  and  S_55
REMARK                            x       y       z     vdW  Elec       q    Type
REMARK                         _______ _______ _______ _____ _____    ______ ____
ROOT
ATOM      1  C   UNL     1      -9.524   7.173  67.747  0.00  0.00    +0.033 C 
ATOM      2  C   UNL     1     -10.150   8.127  68.711  0.00  0.00    -0.002 A 
ATOM      3  C   UNL     1      -9.983   7.926  70.075  0.00  0.00    +0.099 A 
ATOM      4  C   UNL     1     -10.659   8.822  70.894  0.00  0.00    +0.021 A 
ATOM      5  C   UNL     1     -11.061  10.069  70.433  0.00  0.00    +0.002 A 
ATOM      6  C   UNL     1     -11.379  10.167  69.086  0.00  0.00    -0.000 A 
ATOM      7  C   UNL     1     -10.827   9.238  68.230  0.00  0.00    -0.003 A 
ENDROOT
BRANCH   6   8
ATOM      8  C   UNL     1     -11.576  11.530  68.578  0.00  0.00    -0.000 A 
ATOM      9  C   UNL     1     -11.625  11.798  67.215  0.00  0.00    -0.003 A 
ATOM     10  C   UNL     1     -11.127  13.015  66.772  0.00  0.00    -0.002 A 
ATOM     11  C   UNL     1     -10.891  13.200  65.326  0.00  0.00    +0.033 C 
ATOM     12  C   UNL     1     -10.820  14.044  67.639  0.00  0.00    +0.099 A 
ATOM     13  C   UNL     1     -11.286  13.913  68.941  0.00  0.00    +0.021 A 
ATOM     14  C   UNL     1     -11.513  12.633  69.411  0.00  0.00    +0.002 A 
BRANCH  12  15
ATOM     15  N   UNL     1     -10.058  15.176  67.269  0.00  0.00    -0.148 NA
ATOM     16  N   UNL     1      -9.929  16.214  67.971  0.00  0.00    -0.143 NA
BRANCH  16  17
ATOM     17  C   UNL     1      -8.817  17.068  67.739  0.00  0.00    +0.161 A 
ATOM     18  C   UNL     1      -8.887  17.979  66.691  0.00  0.00    +0.159 A 
ATOM     19  C   UNL     1      -7.739  18.675  66.337  0.00  0.00    +0.023 A 
ATOM     20  C   UNL     1      -6.508  18.418  66.918  0.00  0.00    +0.007 A 
ATOM     21  C   UNL     1      -6.458  17.585  68.005  0.00  0.00    +0.057 A 
ATOM     22  C   UNL     1      -5.221  17.297  68.565  0.00  0.00    +0.094 A 
ATOM     23  C   UNL     1      -4.049  17.679  67.936  0.00  0.00    +0.039 A 
ATOM     24  C   UNL     1      -4.089  18.333  66.713  0.00  0.00    +0.138 A 
ATOM     25  N   UNL     1      -5.164  16.415  69.682  0.00  0.00    -0.128 NA
ATOM     26  C   UNL     1      -5.320  18.862  66.351  0.00  0.00    +0.021 A 
ATOM     27  C   UNL     1      -7.607  16.921  68.389  0.00  0.00    +0.217 A 
ATOM     28  O   UNL     1      -7.476  15.822  69.222  0.00  0.00    -0.285 OA
BRANCH  24  29
ATOM     29  S   UNL     1      -2.808  18.100  65.531  0.00  0.00    +0.141 S 
ATOM     30  O   UNL     1      -3.523  17.769  64.053  0.00  0.00    -0.043 OA
ATOM     31  O   UNL     1      -1.939  16.985  66.009  0.00  0.00    -0.140 OA
ATOM     32  O   UNL     1      -2.025  19.380  65.384  0.00  0.00    -0.140 OA
ENDBRANCH  24  29
BRANCH  18  33
ATOM     33  S   UNL     1     -10.430  18.617  66.198  0.00  0.00    +0.142 S 
ATOM     34  O   UNL     1     -11.105  17.712  64.959  0.00  0.00    -0.043 OA
ATOM     35  O   UNL     1     -10.253  20.034  65.715  0.00  0.00    -0.140 OA
ATOM     36  O   UNL     1     -11.384  18.683  67.366  0.00  0.00    -0.140 OA
ENDBRANCH  18  33
ENDBRANCH  16  17
ENDBRANCH  12  15
ENDBRANCH   6   8
BRANCH   3  37
ATOM     37  N   UNL     1      -9.902   6.557  70.487  0.00  0.00    -0.148 NA
ATOM     38  N   UNL     1      -8.910   6.242  71.193  0.00  0.00    -0.143 NA
BRANCH  38  39
ATOM     39  C   UNL     1      -8.810   5.081  71.991  0.00  0.00    +0.161 A 
ATOM     40  C   UNL     1      -9.301   5.141  73.287  0.00  0.00    +0.159 A 
ATOM     41  C   UNL     1      -9.915   4.053  73.894  0.00  0.00    +0.023 A 
ATOM     42  C   UNL     1     -10.026   2.854  73.202  0.00  0.00    +0.007 A 
ATOM     43  C   UNL     1      -9.428   2.732  71.954  0.00  0.00    +0.057 A 
ATOM     44  C   UNL     1      -9.551   1.562  71.216  0.00  0.00    +0.094 A 
ATOM     45  C   UNL     1     -10.658   0.774  71.499  0.00  0.00    +0.039 A 
ATOM     46  C   UNL     1     -11.319   0.879  72.705  0.00  0.00    +0.138 A 
ATOM     47  N   UNL     1      -9.143   1.622  69.845  0.00  0.00    -0.128 NA
ATOM     48  C   UNL     1     -10.925   1.874  73.588  0.00  0.00    +0.021 A 
ATOM     49  C   UNL     1      -8.749   3.815  71.423  0.00  0.00    +0.217 A 
ATOM     50  O   UNL     1      -8.010   3.715  70.245  0.00  0.00    -0.285 OA
BRANCH  46  51
ATOM     51  S   UNL     1     -12.851   0.036  72.904  0.00  0.00    +0.141 S 
ATOM     52  O   UNL     1     -13.978   1.180  73.411  0.00  0.00    -0.043 OA
ATOM     53  O   UNL     1     -12.736  -1.034  73.954  0.00  0.00    -0.140 OA
ATOM     54  O   UNL     1     -13.265  -0.504  71.575  0.00  0.00    -0.140 OA
ENDBRANCH  46  51
BRANCH  40  55
ATOM     55  S   UNL     1      -9.656   6.723  73.969  0.00  0.00    +0.142 S 
ATOM     56  O   UNL     1      -8.502   7.856  73.500  0.00  0.00    -0.043 OA
ATOM     57  O   UNL     1     -11.002   7.172  73.502  0.00  0.00    -0.140 OA
ATOM     58  O   UNL     1      -9.639   6.622  75.473  0.00  0.00    -0.140 OA
ENDBRANCH  40  55
ENDBRANCH  38  39
ENDBRANCH   3  37
TORSDOF 9
ENDMDL
MODEL 9
REMARK VINA RESULT:      -8.4      2.136      2.916
REMARK  Name = 
REMARK  9 active torsions:
REMARK  status: ('A' for Active; 'I' for Inactive)
REMARK    1  A    between atoms: C_4  and  C_5
REMARK    2  A    between atoms: C_8  and  N_9
REMARK    3  A    between atoms: N_10  and  C_11
REMARK    4  A    between atoms: C_18  and  S_19
REMARK    5  A    between atoms: C_26  and  S_27
REMARK    6  A    between atoms: C_36  and  N_37
REMARK    7  A    between atoms: N_38  and  C_39
REMARK    8  A    between atoms: C_46  and  S_47
REMARK    9  A    between atoms: C_54  and  S_55
REMARK                            x       y       z     vdW  Elec       q    Type
REMARK                         _______ _______ _______ _____ _____    ______ ____
ROOT
ATOM      1  C   UNL     1     -11.358  14.663  66.315  0.00  0.00    +0.033 C 
ATOM      2  C   UNL     1     -10.419  13.744  67.025  0.00  0.00    -0.002 A 
ATOM      3  C   UNL     1      -9.302  14.270  67.661  0.00  0.00    +0.099 A 
ATOM      4  C   UNL     1      -8.449  13.333  68.234  0.00  0.00    +0.021 A 
ATOM      5  C   UNL     1      -8.888  12.058  68.569  0.00  0.00    +0.002 A 
ATOM      6  C   UNL     1      -9.897  11.517  67.787  0.00  0.00    -0.000 A 
ATOM      7  C   UNL     1     -10.714  12.391  67.101  0.00  0.00    -0.003 A 
ENDROOT
BRANCH   6   8
ATOM      8  C   UNL     1     -10.499  10.278  68.295  0.00  0.00    -0.000 A 
ATOM      9  C   UNL     1     -11.415  10.289  69.340  0.00  0.00    -0.003 A 
ATOM     10  C   UNL     1     -11.423   9.210  70.211  0.00  0.00    -0.002 A 
ATOM     11  C   UNL     1     -12.163   9.330  71.484  0.00  0.00    +0.033 C 
ATOM     12  C   UNL     1     -10.743   8.040  69.940  0.00  0.00    +0.099 A 
ATOM     13  C   UNL     1     -10.277   7.885  68.641  0.00  0.00    +0.021 A 
ATOM     14  C   UNL     1     -10.036   9.033  67.908  0.00  0.00    +0.002 A 
BRANCH  12  15
ATOM     15  N   UNL     1     -10.493   7.039  70.906  0.00  0.00    -0.148 NA
ATOM     16  N   UNL     1      -9.495   6.269  70.901  0.00  0.00    -0.143 NA
BRANCH  16  17
ATOM     17  C   UNL     1      -9.105   5.640  72.113  0.00  0.00    +0.161 A 
ATOM     18  C   UNL     1      -7.888   5.995  72.684  0.00  0.00    +0.159 A 
ATOM     19  C   UNL     1      -7.412   5.250  73.755  0.00  0.00    +0.023 A 
ATOM     20  C   UNL     1      -8.052   4.108  74.204  0.00  0.00    +0.007 A 
ATOM     21  C   UNL     1      -9.291   3.810  73.699  0.00  0.00    +0.057 A 
ATOM     22  C   UNL     1      -9.918   2.645  74.121  0.00  0.00    +0.094 A 
ATOM     23  C   UNL     1      -9.240   1.707  74.881  0.00  0.00    +0.039 A 
ATOM     24  C   UNL     1      -7.906   1.901  75.209  0.00  0.00    +0.138 A 
ATOM     25  N   UNL     1     -11.196   2.322  73.582  0.00  0.00    -0.128 NA
ATOM     26  C   UNL     1      -7.423   3.190  75.036  0.00  0.00    +0.021 A 
ATOM     27  C   UNL     1      -9.789   4.573  72.662  0.00  0.00    +0.217 A 
ATOM     28  O   UNL     1     -10.837   4.057  71.917  0.00  0.00    -0.285 OA
BRANCH  24  29
ATOM     29  S   UNL     1      -6.819   0.530  75.385  0.00  0.00    +0.141 S 
ATOM     30  O   UNL     1      -6.270   0.108  73.860  0.00  0.00    -0.043 OA
ATOM     31  O   UNL     1      -7.575  -0.573  76.047  0.00  0.00    -0.140 OA
ATOM     32  O   UNL     1      -5.622   0.943  76.204  0.00  0.00    -0.140 OA
ENDBRANCH  24  29
BRANCH  18  33
ATOM     33  S   UNL     1      -7.249   7.597  72.437  0.00  0.00    +0.142 S 
ATOM     34  O   UNL     1      -8.392   8.776  72.771  0.00  0.00    -0.043 OA
ATOM     35  O   UNL     1      -6.813   7.743  71.001  0.00  0.00    -0.140 OA
ATOM     36  O   UNL     1      -6.017   7.821  73.279  0.00  0.00    -0.140 OA
ENDBRANCH  18  33
ENDBRANCH  16  17
ENDBRANCH  12  15
ENDBRANCH   6   8
BRANCH   3  37
ATOM     37  N   UNL     1      -8.723  15.419  67.032  0.00  0.00    -0.148 NA
ATOM     38  N   UNL     1      -8.422  16.378  67.788  0.00  0.00    -0.143 NA
BRANCH  38  39
ATOM     39  C   UNL     1      -7.539  17.430  67.460  0.00  0.00    +0.161 A 
ATOM     40  C   UNL     1      -8.038  18.724  67.474  0.00  0.00    +0.159 A 
ATOM     41  C   UNL     1      -7.270  19.808  67.880  0.00  0.00    +0.023 A 
ATOM     42  C   UNL     1      -5.950  19.606  68.264  0.00  0.00    +0.007 A 
ATOM     43  C   UNL     1      -5.390  18.341  68.134  0.00  0.00    +0.057 A 
ATOM     44  C   UNL     1      -4.086  18.094  68.544  0.00  0.00    +0.094 A 
ATOM     45  C   UNL     1      -3.578  18.947  69.513  0.00  0.00    +0.039 A 
ATOM     46  C   UNL     1      -4.117  20.200  69.716  0.00  0.00    +0.138 A 
ATOM     47  N   UNL     1      -3.691  16.721  68.630  0.00  0.00    -0.128 NA
ATOM     48  C   UNL     1      -5.260  20.547  69.008  0.00  0.00    +0.021 A 
ATOM     49  C   UNL     1      -6.167  17.307  67.642  0.00  0.00    +0.217 A 
ATOM     50  O   UNL     1      -5.629  16.054  67.357  0.00  0.00    -0.285 OA
BRANCH  46  51
ATOM     51  S   UNL     1      -3.592  21.129  71.115  0.00  0.00    +0.141 S 
ATOM     52  O   UNL     1      -3.657  20.096  72.443  0.00  0.00    -0.043 OA
ATOM     53  O   UNL     1      -4.515  22.292  71.356  0.00  0.00    -0.140 OA
ATOM     54  O   UNL     1      -2.179  21.554  70.892  0.00  0.00    -0.140 OA
ENDBRANCH  46  51
BRANCH  40  55
ATOM     55  S   UNL     1      -9.784  18.941  67.518  0.00  0.00    +0.142 S 
ATOM     56  O   UNL     1     -10.187  20.573  67.619  0.00  0.00    -0.043 OA
ATOM     57  O   UNL     1     -10.384  18.363  66.278  0.00  0.00    -0.140 OA
ATOM     58  O   UNL     1     -10.333  18.239  68.733  0.00  0.00    -0.140 OA
ENDBRANCH  40  55
ENDBRANCH  38  39
ENDBRANCH   3  37
TORSDOF 9
ENDMDL
