MODEL 1
REMARK VINA RESULT:      -6.3      0.000      0.000
REMARK  Name = 
REMARK  9 active torsions:
REMARK  status: ('A' for Active; 'I' for Inactive)
REMARK    1  A    between atoms: C_2  and  N_3
REMARK    2  A    between atoms: N_3  and  C_4
REMARK    3  A    between atoms: N_3  and  C_7
REMARK    4  A    between atoms: C_4  and  C_5
REMARK    5  A    between atoms: C_7  and  C_8
REMARK    6  A    between atoms: C_8  and  C_9
REMARK    7  A    between atoms: C_9  and  C_10
REMARK    8  A    between atoms: C_10  and  N_12
REMARK    9  A    between atoms: N_12  and  C_13
REMARK                            x       y       z     vdW  Elec       q    Type
REMARK                         _______ _______ _______ _____ _____    ______ ____
ROOT
ATOM      1  N   UNL     1     -11.742  11.071  68.340  0.00  0.00    -0.239 NA
ENDROOT
BRANCH   1   2
ATOM      2  C   UNL     1     -11.809  10.986  69.755  0.00  0.00    +0.068 A 
ATOM      3  C   UNL     1     -12.262  12.059  70.514  0.00  0.00    +0.033 A 
ATOM      4  C   UNL     1     -13.051  11.852  71.625  0.00  0.00    +0.083 A 
ATOM      5  C   UNL     1     -13.584  12.960  72.255  0.00  0.00    +0.031 A 
ATOM      6  C   UNL     1     -13.109  14.238  71.996  0.00  0.00    +0.059 A 
ATOM      7  C   UNL     1     -12.295  14.385  70.885  0.00  0.00    +0.012 A 
ATOM      8 CL   UNL     1     -13.226  15.497  73.221  0.00  0.00    -0.082 Cl
ATOM      9  N   UNL     1     -13.265  10.609  72.063  0.00  0.00    -0.244 NA
ATOM     10  C   UNL     1     -12.410   9.643  71.643  0.00  0.00    +0.100 A 
ATOM     11  C   UNL     1     -12.047  13.330  70.036  0.00  0.00    +0.004 A 
ATOM     12  C   UNL     1     -11.857   9.741  70.371  0.00  0.00    +0.037 A 
ENDBRANCH   1   2
BRANCH   1  13
ATOM     13  C   UNL     1     -10.536  10.219  67.724  0.00  0.00    +0.093 C 
ATOM     14  C   UNL     1      -9.409  11.303  68.307  0.00  0.00    +0.023 C 
BRANCH  13  15
ATOM     15  C   UNL     1     -10.618  11.017  66.260  0.00  0.00    +0.023 C 
BRANCH  15  16
ATOM     16  C   UNL     1     -11.407  12.244  66.492  0.00  0.00    +0.019 C 
BRANCH  16  17
ATOM     17  C   UNL     1     -11.237  13.354  65.520  0.00  0.00    +0.072 C 
BRANCH  17  18
ATOM     18  N   UNL     1     -12.313  13.467  64.556  0.00  0.00    -0.270 NA
BRANCH  18  20
ATOM     19  C   UNL     1     -12.658  11.783  63.194  0.00  0.00    +0.019 C 
ATOM     20  C   UNL     1     -12.021  12.748  63.343  0.00  0.00    +0.072 C 
ENDBRANCH  18  20
BRANCH  18  21
ATOM     21  C   UNL     1     -12.455  14.889  64.245  0.00  0.00    +0.108 C 
BRANCH  21  22
ATOM     22  C   UNL     1     -11.219  15.558  64.819  0.00  0.00    +0.199 C 
ATOM     23  O   UNL     1     -11.077  16.869  64.408  0.00  0.00    -0.219 OA
ENDBRANCH  21  22
ENDBRANCH  18  21
ENDBRANCH  17  18
ENDBRANCH  16  17
ENDBRANCH  15  16
ENDBRANCH  13  15
ENDBRANCH   1  13
TORSDOF 9
ENDMDL
MODEL 2
REMARK VINA RESULT:      -6.1      1.417      2.169
REMARK  Name = 
REMARK  9 active torsions:
REMARK  status: ('A' for Active; 'I' for Inactive)
REMARK    1  A    between atoms: C_2  and  N_3
REMARK    2  A    between atoms: N_3  and  C_4
REMARK    3  A    between atoms: N_3  and  C_7
REMARK    4  A    between atoms: C_4  and  C_5
REMARK    5  A    between atoms: C_7  and  C_8
REMARK    6  A    between atoms: C_8  and  C_9
REMARK    7  A    between atoms: C_9  and  C_10
REMARK    8  A    between atoms: C_10  and  N_12
REMARK    9  A    between atoms: N_12  and  C_13
REMARK                            x       y       z     vdW  Elec       q    Type
REMARK                         _______ _______ _______ _____ _____    ______ ____
ROOT
ATOM      1  N   UNL     1     -11.812  11.469  68.281  0.00  0.00    -0.239 NA
ENDROOT
BRANCH   1   2
ATOM      2  C   UNL     1     -11.862  11.351  69.694  0.00  0.00    +0.068 A 
ATOM      3  C   UNL     1     -12.301  12.406  70.485  0.00  0.00    +0.033 A 
ATOM      4  C   UNL     1     -13.077  12.176  71.600  0.00  0.00    +0.083 A 
ATOM      5  C   UNL     1     -13.596  13.271  72.263  0.00  0.00    +0.031 A 
ATOM      6  C   UNL     1     -13.119  14.553  72.029  0.00  0.00    +0.059 A 
ATOM      7  C   UNL     1     -12.319  14.723  70.913  0.00  0.00    +0.012 A 
ATOM      8 CL   UNL     1     -13.215  15.782  73.286  0.00  0.00    -0.082 Cl
ATOM      9  N   UNL     1     -13.291  10.923  72.010  0.00  0.00    -0.244 NA
ATOM     10  C   UNL     1     -12.446   9.964  71.556  0.00  0.00    +0.100 A 
ATOM     11  C   UNL     1     -12.085  13.688  70.035  0.00  0.00    +0.004 A 
ATOM     12  C   UNL     1     -11.908  10.091  70.280  0.00  0.00    +0.037 A 
ENDBRANCH   1   2
BRANCH   1  13
ATOM     13  C   UNL     1     -10.767  10.462  67.610  0.00  0.00    +0.093 C 
ATOM     14  C   UNL     1      -9.473  11.337  68.199  0.00  0.00    +0.023 C 
BRANCH  13  15
ATOM     15  C   UNL     1     -10.751  11.312  66.174  0.00  0.00    +0.023 C 
BRANCH  15  16
ATOM     16  C   UNL     1      -9.859  12.471  66.379  0.00  0.00    +0.019 C 
BRANCH  16  17
ATOM     17  C   UNL     1     -10.345  13.793  65.908  0.00  0.00    +0.072 C 
BRANCH  17  18
ATOM     18  N   UNL     1      -9.411  14.879  66.127  0.00  0.00    -0.270 NA
BRANCH  18  20
ATOM     19  C   UNL     1      -9.650  15.704  68.145  0.00  0.00    +0.019 C 
ATOM     20  C   UNL     1      -9.009  14.967  67.508  0.00  0.00    +0.072 C 
ENDBRANCH  18  20
BRANCH  18  21
ATOM     21  C   UNL     1     -10.100  16.112  65.750  0.00  0.00    +0.108 C 
BRANCH  21  22
ATOM     22  C   UNL     1     -11.149  15.701  64.734  0.00  0.00    +0.199 C 
ATOM     23  O   UNL     1     -11.583  16.753  63.951  0.00  0.00    -0.219 OA
ENDBRANCH  21  22
ENDBRANCH  18  21
ENDBRANCH  17  18
ENDBRANCH  16  17
ENDBRANCH  15  16
ENDBRANCH  13  15
ENDBRANCH   1  13
TORSDOF 9
ENDMDL
MODEL 3
REMARK VINA RESULT:      -6.1      2.122      3.262
REMARK  Name = 
REMARK  9 active torsions:
REMARK  status: ('A' for Active; 'I' for Inactive)
REMARK    1  A    between atoms: C_2  and  N_3
REMARK    2  A    between atoms: N_3  and  C_4
REMARK    3  A    between atoms: N_3  and  C_7
REMARK    4  A    between atoms: C_4  and  C_5
REMARK    5  A    between atoms: C_7  and  C_8
REMARK    6  A    between atoms: C_8  and  C_9
REMARK    7  A    between atoms: C_9  and  C_10
REMARK    8  A    between atoms: C_10  and  N_12
REMARK    9  A    between atoms: N_12  and  C_13
REMARK                            x       y       z     vdW  Elec       q    Type
REMARK                         _______ _______ _______ _____ _____    ______ ____
ROOT
ATOM      1  N   UNL     1     -11.806  14.944  68.319  0.00  0.00    -0.239 NA
ENDROOT
BRANCH   1   2
ATOM      2  C   UNL     1     -11.707  14.073  69.435  0.00  0.00    +0.068 A 
ATOM      3  C   UNL     1     -12.027  14.511  70.714  0.00  0.00    +0.033 A 
ATOM      4  C   UNL     1     -12.685  13.684  71.598  0.00  0.00    +0.083 A 
ATOM      5  C   UNL     1     -13.098  14.223  72.802  0.00  0.00    +0.031 A 
ATOM      6  C   UNL     1     -12.609  15.440  73.256  0.00  0.00    +0.059 A 
ATOM      7  C   UNL     1     -11.929  16.218  72.335  0.00  0.00    +0.012 A 
ATOM      8 CL   UNL     1     -12.533  15.781  74.981  0.00  0.00    -0.082 Cl
ATOM      9  N   UNL     1     -12.893  12.405  71.279  0.00  0.00    -0.244 NA
ATOM     10  C   UNL     1     -12.130  11.877  70.288  0.00  0.00    +0.100 A 
ATOM     11  C   UNL     1     -11.822  15.837  71.016  0.00  0.00    +0.004 A 
ATOM     12  C   UNL     1     -11.729  12.697  69.239  0.00  0.00    +0.037 A 
ENDBRANCH   1   2
BRANCH   1  13
ATOM     13  C   UNL     1     -10.384  15.288  67.673  0.00  0.00    +0.093 C 
ATOM     14  C   UNL     1     -10.660  16.928  67.819  0.00  0.00    +0.023 C 
BRANCH  13  15
ATOM     15  C   UNL     1     -10.999  15.274  66.121  0.00  0.00    +0.023 C 
BRANCH  15  16
ATOM     16  C   UNL     1     -10.178  14.320  65.350  0.00  0.00    +0.019 C 
BRANCH  16  17
ATOM     17  C   UNL     1     -10.002  12.960  65.921  0.00  0.00    +0.072 C 
BRANCH  17  18
ATOM     18  N   UNL     1     -10.445  11.890  65.050  0.00  0.00    -0.270 NA
BRANCH  18  20
ATOM     19  C   UNL     1      -9.736   9.827  64.824  0.00  0.00    +0.019 C 
ATOM     20  C   UNL     1      -9.392  10.940  64.793  0.00  0.00    +0.072 C 
ENDBRANCH  18  20
BRANCH  18  21
ATOM     21  C   UNL     1     -10.847  12.509  63.789  0.00  0.00    +0.108 C 
BRANCH  21  22
ATOM     22  C   UNL     1     -12.274  12.053  63.544  0.00  0.00    +0.199 C 
ATOM     23  O   UNL     1     -13.135  12.407  64.564  0.00  0.00    -0.219 OA
ENDBRANCH  21  22
ENDBRANCH  18  21
ENDBRANCH  17  18
ENDBRANCH  16  17
ENDBRANCH  15  16
ENDBRANCH  13  15
ENDBRANCH   1  13
TORSDOF 9
ENDMDL
MODEL 4
REMARK VINA RESULT:      -6.0      2.416      3.401
REMARK  Name = 
REMARK  9 active torsions:
REMARK  status: ('A' for Active; 'I' for Inactive)
REMARK    1  A    between atoms: C_2  and  N_3
REMARK    2  A    between atoms: N_3  and  C_4
REMARK    3  A    between atoms: N_3  and  C_7
REMARK    4  A    between atoms: C_4  and  C_5
REMARK    5  A    between atoms: C_7  and  C_8
REMARK    6  A    between atoms: C_8  and  C_9
REMARK    7  A    between atoms: C_9  and  C_10
REMARK    8  A    between atoms: C_10  and  N_12
REMARK    9  A    between atoms: N_12  and  C_13
REMARK                            x       y       z     vdW  Elec       q    Type
REMARK                         _______ _______ _______ _____ _____    ______ ____
ROOT
ATOM      1  N   UNL     1     -11.901  13.554  68.227  0.00  0.00    -0.239 NA
ENDROOT
BRANCH   1   2
ATOM      2  C   UNL     1     -11.883  13.013  69.540  0.00  0.00    +0.068 A 
ATOM      3  C   UNL     1     -12.163  13.809  70.644  0.00  0.00    +0.033 A 
ATOM      4  C   UNL     1     -12.894  13.314  71.702  0.00  0.00    +0.083 A 
ATOM      5  C   UNL     1     -13.258  14.193  72.704  0.00  0.00    +0.031 A 
ATOM      6  C   UNL     1     -12.662  15.441  72.824  0.00  0.00    +0.059 A 
ATOM      7  C   UNL     1     -11.914  15.877  71.744  0.00  0.00    +0.012 A 
ATOM      8 CL   UNL     1     -12.558  16.231  74.393  0.00  0.00    -0.082 Cl
ATOM      9  N   UNL     1     -13.215  12.018  71.736  0.00  0.00    -0.244 NA
ATOM     10  C   UNL     1     -12.502  11.177  70.945  0.00  0.00    +0.100 A 
ATOM     11  C   UNL     1     -11.840  15.144  70.581  0.00  0.00    +0.004 A 
ATOM     12  C   UNL     1     -12.028  11.643  69.724  0.00  0.00    +0.037 A 
ENDBRANCH   1   2
BRANCH   1  13
ATOM     13  C   UNL     1     -10.892  12.809  67.236  0.00  0.00    +0.093 C 
ATOM     14  C   UNL     1      -9.593  13.672  67.832  0.00  0.00    +0.023 C 
BRANCH  13  15
ATOM     15  C   UNL     1     -11.139  13.927  66.021  0.00  0.00    +0.023 C 
BRANCH  15  16
ATOM     16  C   UNL     1     -10.765  15.243  66.575  0.00  0.00    +0.019 C 
BRANCH  16  17
ATOM     17  C   UNL     1     -10.525  16.344  65.608  0.00  0.00    +0.072 C 
BRANCH  17  18
ATOM     18  N   UNL     1      -9.653  17.389  66.104  0.00  0.00    -0.270 NA
BRANCH  18  20
ATOM     19  C   UNL     1      -7.463  17.515  66.070  0.00  0.00    +0.019 C 
ATOM     20  C   UNL     1      -8.355  16.874  66.462  0.00  0.00    +0.072 C 
ENDBRANCH  18  20
BRANCH  18  21
ATOM     21  C   UNL     1     -10.291  17.943  67.297  0.00  0.00    +0.108 C 
BRANCH  21  22
ATOM     22  C   UNL     1     -10.374  19.440  67.058  0.00  0.00    +0.199 C 
ATOM     23  O   UNL     1     -10.636  19.762  65.741  0.00  0.00    -0.219 OA
ENDBRANCH  21  22
ENDBRANCH  18  21
ENDBRANCH  17  18
ENDBRANCH  16  17
ENDBRANCH  15  16
ENDBRANCH  13  15
ENDBRANCH   1  13
TORSDOF 9
ENDMDL
MODEL 5
REMARK VINA RESULT:      -6.0      3.241      6.950
REMARK  Name = 
REMARK  9 active torsions:
REMARK  status: ('A' for Active; 'I' for Inactive)
REMARK    1  A    between atoms: C_2  and  N_3
REMARK    2  A    between atoms: N_3  and  C_4
REMARK    3  A    between atoms: N_3  and  C_7
REMARK    4  A    between atoms: C_4  and  C_5
REMARK    5  A    between atoms: C_7  and  C_8
REMARK    6  A    between atoms: C_8  and  C_9
REMARK    7  A    between atoms: C_9  and  C_10
REMARK    8  A    between atoms: C_10  and  N_12
REMARK    9  A    between atoms: N_12  and  C_13
REMARK                            x       y       z     vdW  Elec       q    Type
REMARK                         _______ _______ _______ _____ _____    ______ ____
ROOT
ATOM      1  N   UNL     1     -11.879  11.257  68.209  0.00  0.00    -0.239 NA
ENDROOT
BRANCH   1   2
ATOM      2  C   UNL     1     -11.544  12.162  67.168  0.00  0.00    +0.068 A 
ATOM      3  C   UNL     1     -11.061  11.701  65.949  0.00  0.00    +0.033 A 
ATOM      4  C   UNL     1     -11.444  12.299  64.768  0.00  0.00    +0.083 A 
ATOM      5  C   UNL     1     -11.041  11.710  63.585  0.00  0.00    +0.031 A 
ATOM      6  C   UNL     1     -10.039  10.749  63.558  0.00  0.00    +0.059 A 
ATOM      7  C   UNL     1      -9.671  10.203  64.776  0.00  0.00    +0.012 A 
ATOM      8 CL   UNL     1      -9.050  10.534  62.118  0.00  0.00    -0.082 Cl
ATOM      9  N   UNL     1     -12.171  13.418  64.798  0.00  0.00    -0.244 NA
ATOM     10  C   UNL     1     -12.182  14.125  65.956  0.00  0.00    +0.100 A 
ATOM     11  C   UNL     1     -10.330  10.536  65.938  0.00  0.00    +0.004 A 
ATOM     12  C   UNL     1     -12.090  13.440  67.162  0.00  0.00    +0.037 A 
ENDBRANCH   1   2
BRANCH   1  13
ATOM     13  C   UNL     1     -11.149  11.603  69.589  0.00  0.00    +0.093 C 
ATOM     14  C   UNL     1     -10.488  10.072  69.679  0.00  0.00    +0.023 C 
BRANCH  13  15
ATOM     15  C   UNL     1     -12.472  11.138  70.494  0.00  0.00    +0.023 C 
BRANCH  15  16
ATOM     16  C   UNL     1     -12.742  12.236  71.443  0.00  0.00    +0.019 C 
BRANCH  16  17
ATOM     17  C   UNL     1     -12.690  13.622  70.910  0.00  0.00    +0.072 C 
BRANCH  17  18
ATOM     18  N   UNL     1     -12.141  14.593  71.835  0.00  0.00    -0.270 NA
BRANCH  18  20
ATOM     19  C   UNL     1     -12.907  15.699  73.566  0.00  0.00    +0.019 C 
ATOM     20  C   UNL     1     -12.898  14.650  73.059  0.00  0.00    +0.072 C 
ENDBRANCH  18  20
BRANCH  18  21
ATOM     21  C   UNL     1     -12.207  15.894  71.172  0.00  0.00    +0.108 C 
BRANCH  21  22
ATOM     22  C   UNL     1     -11.268  15.795  69.983  0.00  0.00    +0.199 C 
ATOM     23  O   UNL     1     -11.709  16.511  68.887  0.00  0.00    -0.219 OA
ENDBRANCH  21  22
ENDBRANCH  18  21
ENDBRANCH  17  18
ENDBRANCH  16  17
ENDBRANCH  15  16
ENDBRANCH  13  15
ENDBRANCH   1  13
TORSDOF 9
ENDMDL
MODEL 6
REMARK VINA RESULT:      -5.8      3.490      6.870
REMARK  Name = 
REMARK  9 active torsions:
REMARK  status: ('A' for Active; 'I' for Inactive)
REMARK    1  A    between atoms: C_2  and  N_3
REMARK    2  A    between atoms: N_3  and  C_4
REMARK    3  A    between atoms: N_3  and  C_7
REMARK    4  A    between atoms: C_4  and  C_5
REMARK    5  A    between atoms: C_7  and  C_8
REMARK    6  A    between atoms: C_8  and  C_9
REMARK    7  A    between atoms: C_9  and  C_10
REMARK    8  A    between atoms: C_10  and  N_12
REMARK    9  A    between atoms: N_12  and  C_13
REMARK                            x       y       z     vdW  Elec       q    Type
REMARK                         _______ _______ _______ _____ _____    ______ ____
ROOT
ATOM      1  N   UNL     1      -9.517  16.157  66.462  0.00  0.00    -0.239 NA
ENDROOT
BRANCH   1   2
ATOM      2  C   UNL     1     -10.222  15.218  65.665  0.00  0.00    +0.068 A 
ATOM      3  C   UNL     1     -10.341  13.891  66.061  0.00  0.00    +0.033 A 
ATOM      4  C   UNL     1     -11.514  13.197  65.856  0.00  0.00    +0.083 A 
ATOM      5  C   UNL     1     -11.617  11.929  66.395  0.00  0.00    +0.031 A 
ATOM      6  C   UNL     1     -10.501  11.243  66.852  0.00  0.00    +0.059 A 
ATOM      7  C   UNL     1      -9.341  11.981  67.011  0.00  0.00    +0.012 A 
ATOM      8 CL   UNL     1     -10.476   9.483  66.852  0.00  0.00    -0.082 Cl
ATOM      9  N   UNL     1     -12.496  13.753  65.143  0.00  0.00    -0.244 NA
ATOM     10  C   UNL     1     -12.171  14.797  64.340  0.00  0.00    +0.100 A 
ATOM     11  C   UNL     1      -9.326  13.343  66.810  0.00  0.00    +0.004 A 
ATOM     12  C   UNL     1     -11.159  15.663  64.740  0.00  0.00    +0.037 A 
ENDBRANCH   1   2
BRANCH   1  13
ATOM     13  C   UNL     1     -10.395  17.442  66.828  0.00  0.00    +0.093 C 
ATOM     14  C   UNL     1      -9.069  18.447  66.690  0.00  0.00    +0.023 C 
BRANCH  13  15
ATOM     15  C   UNL     1     -10.138  17.248  68.466  0.00  0.00    +0.023 C 
BRANCH  15  16
ATOM     16  C   UNL     1     -11.171  16.309  68.946  0.00  0.00    +0.019 C 
BRANCH  16  17
ATOM     17  C   UNL     1     -11.161  15.970  70.392  0.00  0.00    +0.072 C 
BRANCH  17  18
ATOM     18  N   UNL     1     -11.956  14.808  70.734  0.00  0.00    -0.270 NA
BRANCH  18  20
ATOM     19  C   UNL     1     -11.945  12.764  69.938  0.00  0.00    +0.019 C 
ATOM     20  C   UNL     1     -12.050  13.884  69.632  0.00  0.00    +0.072 C 
ENDBRANCH  18  20
BRANCH  18  21
ATOM     21  C   UNL     1     -13.294  15.292  71.067  0.00  0.00    +0.108 C 
BRANCH  21  22
ATOM     22  C   UNL     1     -13.534  14.876  72.507  0.00  0.00    +0.199 C 
ATOM     23  O   UNL     1     -14.076  13.611  72.619  0.00  0.00    -0.219 OA
ENDBRANCH  21  22
ENDBRANCH  18  21
ENDBRANCH  17  18
ENDBRANCH  16  17
ENDBRANCH  15  16
ENDBRANCH  13  15
ENDBRANCH   1  13
TORSDOF 9
ENDMDL
MODEL 7
REMARK VINA RESULT:      -5.8      2.897      3.904
REMARK  Name = 
REMARK  9 active torsions:
REMARK  status: ('A' for Active; 'I' for Inactive)
REMARK    1  A    between atoms: C_2  and  N_3
REMARK    2  A    between atoms: N_3  and  C_4
REMARK    3  A    between atoms: N_3  and  C_7
REMARK    4  A    between atoms: C_4  and  C_5
REMARK    5  A    between atoms: C_7  and  C_8
REMARK    6  A    between atoms: C_8  and  C_9
REMARK    7  A    between atoms: C_9  and  C_10
REMARK    8  A    between atoms: C_10  and  N_12
REMARK    9  A    between atoms: N_12  and  C_13
REMARK                            x       y       z     vdW  Elec       q    Type
REMARK                         _______ _______ _______ _____ _____    ______ ____
ROOT
ATOM      1  N   UNL     1     -11.899  13.704  68.298  0.00  0.00    -0.239 NA
ENDROOT
BRANCH   1   2
ATOM      2  C   UNL     1     -11.882  13.092  69.578  0.00  0.00    +0.068 A 
ATOM      3  C   UNL     1     -12.147  13.829  70.726  0.00  0.00    +0.033 A 
ATOM      4  C   UNL     1     -12.880  13.287  71.758  0.00  0.00    +0.083 A 
ATOM      5  C   UNL     1     -13.227  14.114  72.809  0.00  0.00    +0.031 A 
ATOM      6  C   UNL     1     -12.614  15.346  72.995  0.00  0.00    +0.059 A 
ATOM      7  C   UNL     1     -11.864  15.831  71.937  0.00  0.00    +0.012 A 
ATOM      8 CL   UNL     1     -12.491  16.047  74.605  0.00  0.00    -0.082 Cl
ATOM      9  N   UNL     1     -13.219  11.996  71.723  0.00  0.00    -0.244 NA
ATOM     10  C   UNL     1     -12.521  11.190  70.884  0.00  0.00    +0.100 A 
ATOM     11  C   UNL     1     -11.806  15.162  70.735  0.00  0.00    +0.004 A 
ATOM     12  C   UNL     1     -12.046  11.716  69.688  0.00  0.00    +0.037 A 
ENDBRANCH   1   2
BRANCH   1  13
ATOM     13  C   UNL     1     -10.907  12.998  67.261  0.00  0.00    +0.093 C 
ATOM     14  C   UNL     1      -9.568  13.579  68.072  0.00  0.00    +0.023 C 
BRANCH  13  15
ATOM     15  C   UNL     1     -10.918  14.316  66.236  0.00  0.00    +0.023 C 
BRANCH  15  16
ATOM     16  C   UNL     1     -10.649  15.502  67.071  0.00  0.00    +0.019 C 
BRANCH  16  17
ATOM     17  C   UNL     1     -10.300  16.763  66.368  0.00  0.00    +0.072 C 
BRANCH  17  18
ATOM     18  N   UNL     1     -10.268  17.931  67.226  0.00  0.00    -0.270 NA
BRANCH  18  20
ATOM     19  C   UNL     1     -10.465  19.783  66.067  0.00  0.00    +0.019 C 
ATOM     20  C   UNL     1      -9.686  19.067  66.557  0.00  0.00    +0.072 C 
ENDBRANCH  18  20
BRANCH  18  21
ATOM     21  C   UNL     1      -9.444  17.584  68.382  0.00  0.00    +0.108 C 
BRANCH  21  22
ATOM     22  C   UNL     1      -8.029  17.992  68.013  0.00  0.00    +0.199 C 
ATOM     23  O   UNL     1      -7.104  17.671  68.987  0.00  0.00    -0.219 OA
ENDBRANCH  21  22
ENDBRANCH  18  21
ENDBRANCH  17  18
ENDBRANCH  16  17
ENDBRANCH  15  16
ENDBRANCH  13  15
ENDBRANCH   1  13
TORSDOF 9
ENDMDL
MODEL 8
REMARK VINA RESULT:      -5.7      3.990      7.847
REMARK  Name = 
REMARK  9 active torsions:
REMARK  status: ('A' for Active; 'I' for Inactive)
REMARK    1  A    between atoms: C_2  and  N_3
REMARK    2  A    between atoms: N_3  and  C_4
REMARK    3  A    between atoms: N_3  and  C_7
REMARK    4  A    between atoms: C_4  and  C_5
REMARK    5  A    between atoms: C_7  and  C_8
REMARK    6  A    between atoms: C_8  and  C_9
REMARK    7  A    between atoms: C_9  and  C_10
REMARK    8  A    between atoms: C_10  and  N_12
REMARK    9  A    between atoms: N_12  and  C_13
REMARK                            x       y       z     vdW  Elec       q    Type
REMARK                         _______ _______ _______ _____ _____    ______ ____
ROOT
ATOM      1  N   UNL     1     -11.916  11.206  67.876  0.00  0.00    -0.239 NA
ENDROOT
BRANCH   1   2
ATOM      2  C   UNL     1     -11.619  12.147  66.856  0.00  0.00    +0.068 A 
ATOM      3  C   UNL     1     -11.068  11.740  65.647  0.00  0.00    +0.033 A 
ATOM      4  C   UNL     1     -11.460  12.325  64.462  0.00  0.00    +0.083 A 
ATOM      5  C   UNL     1     -10.980  11.783  63.285  0.00  0.00    +0.031 A 
ATOM      6  C   UNL     1      -9.909  10.900  63.278  0.00  0.00    +0.059 A 
ATOM      7  C   UNL     1      -9.537  10.365  64.499  0.00  0.00    +0.012 A 
ATOM      8 CL   UNL     1      -8.865  10.777  61.866  0.00  0.00    -0.082 Cl
ATOM      9  N   UNL     1     -12.268  13.387  64.483  0.00  0.00    -0.244 NA
ATOM     10  C   UNL     1     -12.364  14.075  65.649  0.00  0.00    +0.100 A 
ATOM     11  C   UNL     1     -10.252  10.633  65.645  0.00  0.00    +0.004 A 
ATOM     12  C   UNL     1     -12.257  13.382  66.850  0.00  0.00    +0.037 A 
ENDBRANCH   1   2
BRANCH   1  13
ATOM     13  C   UNL     1     -11.395  11.667  69.316  0.00  0.00    +0.093 C 
ATOM     14  C   UNL     1     -10.129  10.580  69.260  0.00  0.00    +0.023 C 
BRANCH  13  15
ATOM     15  C   UNL     1     -12.369  10.566  70.106  0.00  0.00    +0.023 C 
BRANCH  15  16
ATOM     16  C   UNL     1     -11.529   9.920  71.134  0.00  0.00    +0.019 C 
BRANCH  16  17
ATOM     17  C   UNL     1     -12.141   8.816  71.916  0.00  0.00    +0.072 C 
BRANCH  17  18
ATOM     18  N   UNL     1     -12.606   7.706  71.110  0.00  0.00    -0.270 NA
BRANCH  18  20
ATOM     19  C   UNL     1     -14.707   8.018  71.659  0.00  0.00    +0.019 C 
ATOM     20  C   UNL     1     -13.875   7.205  71.574  0.00  0.00    +0.072 C 
ENDBRANCH  18  20
BRANCH  18  21
ATOM     21  C   UNL     1     -11.605   6.648  71.228  0.00  0.00    +0.108 C 
BRANCH  21  22
ATOM     22  C   UNL     1     -11.343   6.172  69.810  0.00  0.00    +0.199 C 
ATOM     23  O   UNL     1     -10.817   7.159  68.999  0.00  0.00    -0.219 OA
ENDBRANCH  21  22
ENDBRANCH  18  21
ENDBRANCH  17  18
ENDBRANCH  16  17
ENDBRANCH  15  16
ENDBRANCH  13  15
ENDBRANCH   1  13
TORSDOF 9
ENDMDL
MODEL 9
REMARK VINA RESULT:      -5.7      4.788      6.995
REMARK  Name = 
REMARK  9 active torsions:
REMARK  status: ('A' for Active; 'I' for Inactive)
REMARK    1  A    between atoms: C_2  and  N_3
REMARK    2  A    between atoms: N_3  and  C_4
REMARK    3  A    between atoms: N_3  and  C_7
REMARK    4  A    between atoms: C_4  and  C_5
REMARK    5  A    between atoms: C_7  and  C_8
REMARK    6  A    between atoms: C_8  and  C_9
REMARK    7  A    between atoms: C_9  and  C_10
REMARK    8  A    between atoms: C_10  and  N_12
REMARK    9  A    between atoms: N_12  and  C_13
REMARK                            x       y       z     vdW  Elec       q    Type
REMARK                         _______ _______ _______ _____ _____    ______ ____
ROOT
ATOM      1  N   UNL     1      -9.804  16.425  68.009  0.00  0.00    -0.239 NA
ENDROOT
BRANCH   1   2
ATOM      2  C   UNL     1      -9.734  17.836  67.874  0.00  0.00    +0.068 A 
ATOM      3  C   UNL     1      -8.527  18.509  68.024  0.00  0.00    +0.033 A 
ATOM      4  C   UNL     1      -8.213  19.580  67.216  0.00  0.00    +0.083 A 
ATOM      5  C   UNL     1      -6.944  20.117  67.319  0.00  0.00    +0.031 A 
ATOM      6  C   UNL     1      -6.117  19.819  68.394  0.00  0.00    +0.059 A 
ATOM      7  C   UNL     1      -6.495  18.753  69.191  0.00  0.00    +0.012 A 
ATOM      8 CL   UNL     1      -4.888  20.966  68.916  0.00  0.00    -0.082 Cl
ATOM      9  N   UNL     1      -9.130  20.069  66.378  0.00  0.00    -0.244 NA
ATOM     10  C   UNL     1     -10.428  19.753  66.620  0.00  0.00    +0.100 A 
ATOM     11  C   UNL     1      -7.589  17.977  68.878  0.00  0.00    +0.004 A 
ATOM     12  C   UNL     1     -10.725  18.513  67.173  0.00  0.00    +0.037 A 
ENDBRANCH   1   2
BRANCH   1  13
ATOM     13  C   UNL     1     -11.266  15.912  68.406  0.00  0.00    +0.093 C 
ATOM     14  C   UNL     1     -11.005  16.267  70.016  0.00  0.00    +0.023 C 
BRANCH  13  15
ATOM     15  C   UNL     1     -10.741  14.342  68.618  0.00  0.00    +0.023 C 
BRANCH  15  16
ATOM     16  C   UNL     1     -11.420  13.528  67.590  0.00  0.00    +0.019 C 
BRANCH  16  17
ATOM     17  C   UNL     1     -10.982  13.708  66.183  0.00  0.00    +0.072 C 
BRANCH  17  18
ATOM     18  N   UNL     1     -11.995  13.381  65.200  0.00  0.00    -0.270 NA
BRANCH  18  20
ATOM     19  C   UNL     1     -12.293  12.138  63.417  0.00  0.00    +0.019 C 
ATOM     20  C   UNL     1     -11.512  12.429  64.232  0.00  0.00    +0.072 C 
ENDBRANCH  18  20
BRANCH  18  21
ATOM     21  C   UNL     1     -12.338  14.626  64.514  0.00  0.00    +0.108 C 
BRANCH  21  22
ATOM     22  C   UNL     1     -11.146  15.545  64.715  0.00  0.00    +0.199 C 
ATOM     23  O   UNL     1     -11.339  16.803  64.178  0.00  0.00    -0.219 OA
ENDBRANCH  21  22
ENDBRANCH  18  21
ENDBRANCH  17  18
ENDBRANCH  16  17
ENDBRANCH  15  16
ENDBRANCH  13  15
ENDBRANCH   1  13
TORSDOF 9
ENDMDL
