MODEL 1
REMARK VINA RESULT:      -6.2      0.000      0.000
REMARK  Name = 
REMARK  3 active torsions:
REMARK  status: ('A' for Active; 'I' for Inactive)
REMARK    1  A    between atoms: C_2  and  C_3
REMARK    2  A    between atoms: C_3  and  N_17
REMARK    3  A    between atoms: C_7  and  C_8
REMARK                            x       y       z     vdW  Elec       q    Type
REMARK                         _______ _______ _______ _____ _____    ______ ____
ROOT
ATOM      1  C   UNL     1     -12.320  13.693  70.567  0.00  0.00    +0.146 C 
ATOM      2  C   UNL     1     -11.989  13.961  69.304  0.00  0.00    +0.077 C 
ATOM      3  S   UNL     1     -11.687  12.771  68.011  0.00  0.00    -0.101 S 
ATOM      4  C   UNL     1     -11.013  13.973  66.683  0.00  0.00    +0.087 C 
ATOM      5  C   UNL     1      -9.848  14.492  67.646  0.00  0.00    +0.078 C 
ATOM      6  S   UNL     1     -10.911  15.335  68.872  0.00  0.00    -0.104 S 
ENDROOT
BRANCH   4   7
ATOM      7  C   UNL     1     -10.098  12.970  65.908  0.00  0.00    -0.001 A 
ATOM      8  C   UNL     1     -10.815  12.258  64.951  0.00  0.00    +0.055 A 
ATOM      9 CL   UNL     1     -12.002  13.094  63.955  0.00  0.00    -0.083 Cl
ATOM     10  C   UNL     1     -10.577  10.908  64.719  0.00  0.00    +0.022 A 
ATOM     11  C   UNL     1      -9.601  10.242  65.450  0.00  0.00    +0.058 A 
ATOM     12 CL   UNL     1      -9.764   8.547  65.901  0.00  0.00    -0.082 Cl
ATOM     13  C   UNL     1      -8.650  11.069  66.034  0.00  0.00    +0.011 A 
ATOM     14  C   UNL     1      -9.068  12.319  66.482  0.00  0.00    -0.002 A 
ENDBRANCH   4   7
BRANCH   1  15
ATOM     15  N   UNL     1     -12.885  14.788  71.285  0.00  0.00    -0.277 N 
ATOM     16  C   UNL     1     -14.166  15.129  71.422  0.00  0.00    +0.183 A 
ATOM     17  N   UNL     1     -14.313  15.938  72.500  0.00  0.00    -0.222 NA
ATOM     18  C   UNL     1     -13.187  15.816  73.246  0.00  0.00    +0.120 A 
ATOM     19  C   UNL     1     -12.246  15.336  72.349  0.00  0.00    +0.103 A 
ENDBRANCH   1  15
BRANCH   1  21
ATOM     20  N   UNL     1     -12.812  11.356  71.359  0.00  0.00    -0.189 NA
ATOM     21  C   UNL     1     -12.519  12.340  71.005  0.00  0.00    +0.119 C 
ENDBRANCH   1  21
TORSDOF 3
ENDMDL
MODEL 2
REMARK VINA RESULT:      -5.7      5.192      7.276
REMARK  Name = 
REMARK  3 active torsions:
REMARK  status: ('A' for Active; 'I' for Inactive)
REMARK    1  A    between atoms: C_2  and  C_3
REMARK    2  A    between atoms: C_3  and  N_17
REMARK    3  A    between atoms: C_7  and  C_8
REMARK                            x       y       z     vdW  Elec       q    Type
REMARK                         _______ _______ _______ _____ _____    ______ ____
ROOT
ATOM      1  C   UNL     1     -10.614  15.061  65.925  0.00  0.00    +0.146 C 
ATOM      2  C   UNL     1      -9.671  15.560  66.726  0.00  0.00    +0.077 C 
ATOM      3  S   UNL     1      -8.860  17.138  66.554  0.00  0.00    -0.101 S 
ATOM      4  C   UNL     1      -7.512  16.901  67.894  0.00  0.00    +0.087 C 
ATOM      5  C   UNL     1      -6.952  15.579  67.192  0.00  0.00    +0.078 C 
ATOM      6  S   UNL     1      -8.413  14.518  67.480  0.00  0.00    -0.104 S 
ENDROOT
BRANCH   4   7
ATOM      7  C   UNL     1      -6.418  17.838  67.287  0.00  0.00    -0.001 A 
ATOM      8  C   UNL     1      -6.657  19.173  67.602  0.00  0.00    +0.055 A 
ATOM      9 CL   UNL     1      -7.179  19.602  69.227  0.00  0.00    -0.083 Cl
ATOM     10  C   UNL     1      -6.438  20.189  66.677  0.00  0.00    +0.022 A 
ATOM     11  C   UNL     1      -5.968  19.878  65.408  0.00  0.00    +0.058 A 
ATOM     12 CL   UNL     1      -6.446  20.796  63.983  0.00  0.00    -0.082 Cl
ATOM     13  C   UNL     1      -5.339  18.643  65.309  0.00  0.00    +0.011 A 
ATOM     14  C   UNL     1      -5.825  17.606  66.100  0.00  0.00    -0.002 A 
ENDBRANCH   4   7
BRANCH   1  15
ATOM     15  N   UNL     1     -11.371  13.989  66.483  0.00  0.00    -0.277 N 
ATOM     16  C   UNL     1     -11.356  12.697  66.161  0.00  0.00    +0.183 A 
ATOM     17  N   UNL     1     -11.870  11.965  67.180  0.00  0.00    -0.222 NA
ATOM     18  C   UNL     1     -11.877  12.760  68.279  0.00  0.00    +0.120 A 
ATOM     19  C   UNL     1     -11.830  14.043  67.758  0.00  0.00    +0.103 A 
ENDBRANCH   1  15
BRANCH   1  21
ATOM     20  N   UNL     1     -11.438  16.520  64.048  0.00  0.00    -0.189 NA
ATOM     21  C   UNL     1     -11.117  15.823  64.817  0.00  0.00    +0.119 C 
ENDBRANCH   1  21
TORSDOF 3
ENDMDL
MODEL 3
REMARK VINA RESULT:      -5.6      4.429      5.931
REMARK  Name = 
REMARK  3 active torsions:
REMARK  status: ('A' for Active; 'I' for Inactive)
REMARK    1  A    between atoms: C_2  and  C_3
REMARK    2  A    between atoms: C_3  and  N_17
REMARK    3  A    between atoms: C_7  and  C_8
REMARK                            x       y       z     vdW  Elec       q    Type
REMARK                         _______ _______ _______ _____ _____    ______ ____
ROOT
ATOM      1  C   UNL     1      -7.842  17.730  67.580  0.00  0.00    +0.146 C 
ATOM      2  C   UNL     1      -8.641  16.704  67.875  0.00  0.00    +0.077 C 
ATOM      3  S   UNL     1      -9.209  15.444  66.749  0.00  0.00    -0.101 S 
ATOM      4  C   UNL     1     -10.485  14.600  67.901  0.00  0.00    +0.087 C 
ATOM      5  C   UNL     1     -11.288  15.964  68.122  0.00  0.00    +0.078 C 
ATOM      6  S   UNL     1      -9.992  16.856  69.054  0.00  0.00    -0.104 S 
ENDROOT
BRANCH   4   7
ATOM      7  C   UNL     1     -11.460  14.058  66.806  0.00  0.00    -0.001 A 
ATOM      8  C   UNL     1     -11.623  12.678  66.907  0.00  0.00    +0.055 A 
ATOM      9 CL   UNL     1     -11.809  11.939  68.493  0.00  0.00    -0.083 Cl
ATOM     10  C   UNL     1     -11.702  11.871  65.777  0.00  0.00    +0.022 A 
ATOM     11  C   UNL     1     -11.620  12.441  64.513  0.00  0.00    +0.058 A 
ATOM     12 CL   UNL     1     -10.865  11.606  63.157  0.00  0.00    -0.082 Cl
ATOM     13  C   UNL     1     -11.908  13.800  64.470  0.00  0.00    +0.011 A 
ATOM     14  C   UNL     1     -11.534  14.574  65.564  0.00  0.00    -0.002 A 
ENDBRANCH   4   7
BRANCH   1  15
ATOM     15  N   UNL     1      -7.224  18.352  68.704  0.00  0.00    -0.277 N 
ATOM     16  C   UNL     1      -6.185  17.937  69.426  0.00  0.00    +0.183 A 
ATOM     17  N   UNL     1      -5.648  18.982  70.102  0.00  0.00    -0.222 NA
ATOM     18  C   UNL     1      -6.126  20.115  69.529  0.00  0.00    +0.120 A 
ATOM     19  C   UNL     1      -7.276  19.696  68.880  0.00  0.00    +0.103 A 
ENDBRANCH   1  15
BRANCH   1  21
ATOM     20  N   UNL     1      -6.854  18.143  65.304  0.00  0.00    -0.189 NA
ATOM     21  C   UNL     1      -7.303  17.887  66.259  0.00  0.00    +0.119 C 
ENDBRANCH   1  21
TORSDOF 3
ENDMDL
MODEL 4
REMARK VINA RESULT:      -5.6      4.003      5.942
REMARK  Name = 
REMARK  3 active torsions:
REMARK  status: ('A' for Active; 'I' for Inactive)
REMARK    1  A    between atoms: C_2  and  C_3
REMARK    2  A    between atoms: C_3  and  N_17
REMARK    3  A    between atoms: C_7  and  C_8
REMARK                            x       y       z     vdW  Elec       q    Type
REMARK                         _______ _______ _______ _____ _____    ______ ____
ROOT
ATOM      1  C   UNL     1     -11.265  13.144  67.011  0.00  0.00    +0.146 C 
ATOM      2  C   UNL     1     -11.065  11.826  66.963  0.00  0.00    +0.077 C 
ATOM      3  S   UNL     1     -11.199  10.683  68.324  0.00  0.00    -0.101 S 
ATOM      4  C   UNL     1     -10.481   9.135  67.454  0.00  0.00    +0.087 C 
ATOM      5  C   UNL     1      -9.112   9.882  67.106  0.00  0.00    +0.078 C 
ATOM      6  S   UNL     1      -9.796  11.093  65.918  0.00  0.00    -0.104 S 
ENDROOT
BRANCH   4   7
ATOM      7  C   UNL     1      -9.910   8.408  68.714  0.00  0.00    -0.001 A 
ATOM      8  C   UNL     1     -10.613   7.238  68.990  0.00  0.00    +0.055 A 
ATOM      9 CL   UNL     1     -11.080   6.172  67.670  0.00  0.00    -0.083 Cl
ATOM     10  C   UNL     1     -10.908   6.858  70.296  0.00  0.00    +0.022 A 
ATOM     11  C   UNL     1     -10.495   7.654  71.357  0.00  0.00    +0.058 A 
ATOM     12 CL   UNL     1     -11.445   7.811  72.833  0.00  0.00    -0.082 Cl
ATOM     13  C   UNL     1      -9.452   8.521  71.060  0.00  0.00    +0.011 A 
ATOM     14  C   UNL     1      -9.407   9.062  69.778  0.00  0.00    -0.002 A 
ENDBRANCH   4   7
BRANCH   1  15
ATOM     15  N   UNL     1     -11.486  13.764  65.746  0.00  0.00    -0.277 N 
ATOM     16  C   UNL     1     -12.615  13.862  65.046  0.00  0.00    +0.183 A 
ATOM     17  N   UNL     1     -12.511  14.868  64.144  0.00  0.00    -0.222 NA
ATOM     18  C   UNL     1     -11.454  15.631  64.518  0.00  0.00    +0.120 A 
ATOM     19  C   UNL     1     -10.702  14.784  65.317  0.00  0.00    +0.103 A 
ENDBRANCH   1  15
BRANCH   1  21
ATOM     20  N   UNL     1     -12.051  14.369  69.063  0.00  0.00    -0.189 NA
ATOM     21  C   UNL     1     -11.677  13.782  68.229  0.00  0.00    +0.119 C 
ENDBRANCH   1  21
TORSDOF 3
ENDMDL
MODEL 5
REMARK VINA RESULT:      -5.5      5.047      7.077
REMARK  Name = 
REMARK  3 active torsions:
REMARK  status: ('A' for Active; 'I' for Inactive)
REMARK    1  A    between atoms: C_2  and  C_3
REMARK    2  A    between atoms: C_3  and  N_17
REMARK    3  A    between atoms: C_7  and  C_8
REMARK                            x       y       z     vdW  Elec       q    Type
REMARK                         _______ _______ _______ _____ _____    ______ ____
ROOT
ATOM      1  C   UNL     1     -11.251  15.141  68.029  0.00  0.00    +0.146 C 
ATOM      2  C   UNL     1      -9.968  15.392  67.762  0.00  0.00    +0.077 C 
ATOM      3  S   UNL     1      -8.868  16.419  68.716  0.00  0.00    -0.101 S 
ATOM      4  C   UNL     1      -7.393  16.450  67.495  0.00  0.00    +0.087 C 
ATOM      5  C   UNL     1      -8.294  17.041  66.316  0.00  0.00    +0.078 C 
ATOM      6  S   UNL     1      -9.364  15.577  66.077  0.00  0.00    -0.104 S 
ENDROOT
BRANCH   4   7
ATOM      7  C   UNL     1      -6.790  17.835  67.897  0.00  0.00    -0.001 A 
ATOM      8  C   UNL     1      -5.437  17.731  68.212  0.00  0.00    +0.055 A 
ATOM      9 CL   UNL     1      -4.388  16.731  67.214  0.00  0.00    -0.083 Cl
ATOM     10  C   UNL     1      -4.878  18.447  69.265  0.00  0.00    +0.022 A 
ATOM     11  C   UNL     1      -5.676  19.291  70.028  0.00  0.00    +0.058 A 
ATOM     12 CL   UNL     1      -5.398  19.537  71.750  0.00  0.00    -0.082 Cl
ATOM     13  C   UNL     1      -6.856  19.687  69.410  0.00  0.00    +0.011 A 
ATOM     14  C   UNL     1      -7.484  18.773  68.570  0.00  0.00    -0.002 A 
ENDBRANCH   4   7
BRANCH   1  15
ATOM     15  N   UNL     1     -11.791  14.002  67.362  0.00  0.00    -0.277 N 
ATOM     16  C   UNL     1     -12.438  13.940  66.199  0.00  0.00    +0.183 A 
ATOM     17  N   UNL     1     -12.400  12.673  65.720  0.00  0.00    -0.222 NA
ATOM     18  C   UNL     1     -11.427  12.018  66.401  0.00  0.00    +0.120 A 
ATOM     19  C   UNL     1     -11.277  12.762  67.561  0.00  0.00    +0.103 A 
ENDBRANCH   1  15
BRANCH   1  21
ATOM     20  N   UNL     1     -12.341  15.938  70.151  0.00  0.00    -0.189 NA
ATOM     21  C   UNL     1     -11.875  15.674  69.206  0.00  0.00    +0.119 C 
ENDBRANCH   1  21
TORSDOF 3
ENDMDL
MODEL 6
REMARK VINA RESULT:      -5.5      4.184      4.944
REMARK  Name = 
REMARK  3 active torsions:
REMARK  status: ('A' for Active; 'I' for Inactive)
REMARK    1  A    between atoms: C_2  and  C_3
REMARK    2  A    between atoms: C_3  and  N_17
REMARK    3  A    between atoms: C_7  and  C_8
REMARK                            x       y       z     vdW  Elec       q    Type
REMARK                         _______ _______ _______ _____ _____    ______ ____
ROOT
ATOM      1  C   UNL     1      -9.555  15.888  66.300  0.00  0.00    +0.146 C 
ATOM      2  C   UNL     1     -10.299  14.790  66.159  0.00  0.00    +0.077 C 
ATOM      3  S   UNL     1      -9.713  13.106  66.147  0.00  0.00    -0.101 S 
ATOM      4  C   UNL     1     -11.343  12.253  65.617  0.00  0.00    +0.087 C 
ATOM      5  C   UNL     1     -11.445  13.124  64.282  0.00  0.00    +0.078 C 
ATOM      6  S   UNL     1     -11.736  14.745  65.076  0.00  0.00    -0.104 S 
ENDROOT
BRANCH   4   7
ATOM      7  C   UNL     1     -10.728  11.004  64.906  0.00  0.00    -0.001 A 
ATOM      8  C   UNL     1     -10.107  10.152  65.815  0.00  0.00    +0.055 A 
ATOM      9 CL   UNL     1     -10.882   9.814  67.359  0.00  0.00    -0.083 Cl
ATOM     10  C   UNL     1      -8.910   9.512  65.511  0.00  0.00    +0.022 A 
ATOM     11  C   UNL     1      -8.312   9.716  64.274  0.00  0.00    +0.058 A 
ATOM     12 CL   UNL     1      -6.562   9.730  64.072  0.00  0.00    -0.082 Cl
ATOM     13  C   UNL     1      -9.169  10.185  63.286  0.00  0.00    +0.011 A 
ATOM     14  C   UNL     1     -10.187  11.051  63.673  0.00  0.00    -0.002 A 
ENDBRANCH   4   7
BRANCH   1  15
ATOM     15  N   UNL     1     -10.278  17.060  66.670  0.00  0.00    -0.277 N 
ATOM     16  C   UNL     1     -10.556  17.524  67.887  0.00  0.00    +0.183 A 
ATOM     17  N   UNL     1     -10.865  18.842  67.816  0.00  0.00    -0.222 NA
ATOM     18  C   UNL     1     -10.436  19.288  66.610  0.00  0.00    +0.120 A 
ATOM     19  C   UNL     1     -10.341  18.136  65.846  0.00  0.00    +0.103 A 
ENDBRANCH   1  15
BRANCH   1  21
ATOM     20  N   UNL     1      -7.092  15.796  66.804  0.00  0.00    -0.189 NA
ATOM     21  C   UNL     1      -8.138  15.794  66.513  0.00  0.00    +0.119 C 
ENDBRANCH   1  21
TORSDOF 3
ENDMDL
MODEL 7
REMARK VINA RESULT:      -5.4      5.870      7.836
REMARK  Name = 
REMARK  3 active torsions:
REMARK  status: ('A' for Active; 'I' for Inactive)
REMARK    1  A    between atoms: C_2  and  C_3
REMARK    2  A    between atoms: C_3  and  N_17
REMARK    3  A    between atoms: C_7  and  C_8
REMARK                            x       y       z     vdW  Elec       q    Type
REMARK                         _______ _______ _______ _____ _____    ______ ____
ROOT
ATOM      1  C   UNL     1      -9.786  15.630  66.578  0.00  0.00    +0.146 C 
ATOM      2  C   UNL     1      -9.431  16.912  66.484  0.00  0.00    +0.077 C 
ATOM      3  S   UNL     1      -7.800  17.582  66.744  0.00  0.00    -0.101 S 
ATOM      4  C   UNL     1      -8.258  19.441  66.702  0.00  0.00    +0.087 C 
ATOM      5  C   UNL     1      -9.308  19.279  67.895  0.00  0.00    +0.078 C 
ATOM      6  S   UNL     1     -10.524  18.243  67.004  0.00  0.00    -0.104 S 
ENDROOT
BRANCH   4   7
ATOM      7  C   UNL     1      -7.111  19.981  67.617  0.00  0.00    -0.001 A 
ATOM      8  C   UNL     1      -5.912  20.097  66.918  0.00  0.00    +0.055 A 
ATOM      9 CL   UNL     1      -5.918  20.745  65.282  0.00  0.00    -0.083 Cl
ATOM     10  C   UNL     1      -4.694  19.765  67.504  0.00  0.00    +0.022 A 
ATOM     11  C   UNL     1      -4.660  19.309  68.816  0.00  0.00    +0.058 A 
ATOM     12 CL   UNL     1      -3.484  18.116  69.361  0.00  0.00    -0.082 Cl
ATOM     13  C   UNL     1      -5.777  19.638  69.573  0.00  0.00    +0.011 A 
ATOM     14  C   UNL     1      -7.008  19.678  68.925  0.00  0.00    -0.002 A 
ENDBRANCH   4   7
BRANCH   1  15
ATOM     15  N   UNL     1     -11.023  15.301  65.948  0.00  0.00    -0.277 N 
ATOM     16  C   UNL     1     -11.362  15.402  64.664  0.00  0.00    +0.183 A 
ATOM     17  N   UNL     1     -12.429  14.606  64.408  0.00  0.00    -0.222 NA
ATOM     18  C   UNL     1     -12.536  13.736  65.443  0.00  0.00    +0.120 A 
ATOM     19  C   UNL     1     -11.850  14.362  66.472  0.00  0.00    +0.103 A 
ENDBRANCH   1  15
BRANCH   1  21
ATOM     20  N   UNL     1      -8.107  13.875  67.235  0.00  0.00    -0.189 NA
ATOM     21  C   UNL     1      -8.812  14.616  66.869  0.00  0.00    +0.119 C 
ENDBRANCH   1  21
TORSDOF 3
ENDMDL
MODEL 8
REMARK VINA RESULT:      -5.4      3.359      5.390
REMARK  Name = 
REMARK  3 active torsions:
REMARK  status: ('A' for Active; 'I' for Inactive)
REMARK    1  A    between atoms: C_2  and  C_3
REMARK    2  A    between atoms: C_3  and  N_17
REMARK    3  A    between atoms: C_7  and  C_8
REMARK                            x       y       z     vdW  Elec       q    Type
REMARK                         _______ _______ _______ _____ _____    ______ ____
ROOT
ATOM      1  C   UNL     1     -11.381   9.326  70.927  0.00  0.00    +0.146 C 
ATOM      2  C   UNL     1     -10.776   9.756  69.819  0.00  0.00    +0.077 C 
ATOM      3  S   UNL     1     -11.202  11.203  68.870  0.00  0.00    -0.101 S 
ATOM      4  C   UNL     1     -10.063  10.890  67.364  0.00  0.00    +0.087 C 
ATOM      5  C   UNL     1     -10.723   9.463  67.076  0.00  0.00    +0.078 C 
ATOM      6  S   UNL     1     -10.129   8.617  68.585  0.00  0.00    -0.104 S 
ENDROOT
BRANCH   4   7
ATOM      7  C   UNL     1     -10.904  11.638  66.280  0.00  0.00    -0.001 A 
ATOM      8  C   UNL     1     -10.132  11.963  65.168  0.00  0.00    +0.055 A 
ATOM      9 CL   UNL     1      -8.986  10.788  64.532  0.00  0.00    -0.083 Cl
ATOM     10  C   UNL     1     -10.283  13.178  64.507  0.00  0.00    +0.022 A 
ATOM     11  C   UNL     1     -11.225  14.095  64.954  0.00  0.00    +0.058 A 
ATOM     12 CL   UNL     1     -10.964  15.834  64.843  0.00  0.00    -0.082 Cl
ATOM     13  C   UNL     1     -12.234  13.553  65.741  0.00  0.00    +0.011 A 
ATOM     14  C   UNL     1     -11.900  12.494  66.580  0.00  0.00    -0.002 A 
ENDBRANCH   4   7
BRANCH   1  15
ATOM     15  N   UNL     1     -10.626   8.399  71.704  0.00  0.00    -0.277 N 
ATOM     16  C   UNL     1      -9.417   8.548  72.244  0.00  0.00    +0.183 A 
ATOM     17  N   UNL     1      -9.244   7.641  73.237  0.00  0.00    -0.222 NA
ATOM     18  C   UNL     1     -10.471   7.162  73.558  0.00  0.00    +0.120 A 
ATOM     19  C   UNL     1     -11.236   7.433  72.434  0.00  0.00    +0.103 A 
ENDBRANCH   1  15
BRANCH   1  21
ATOM     20  N   UNL     1     -13.326  10.499  72.010  0.00  0.00    -0.189 NA
ATOM     21  C   UNL     1     -12.464  10.068  71.509  0.00  0.00    +0.119 C 
ENDBRANCH   1  21
TORSDOF 3
ENDMDL
MODEL 9
REMARK VINA RESULT:      -5.4      3.810      5.992
REMARK  Name = 
REMARK  3 active torsions:
REMARK  status: ('A' for Active; 'I' for Inactive)
REMARK    1  A    between atoms: C_2  and  C_3
REMARK    2  A    between atoms: C_3  and  N_17
REMARK    3  A    between atoms: C_7  and  C_8
REMARK                            x       y       z     vdW  Elec       q    Type
REMARK                         _______ _______ _______ _____ _____    ______ ____
ROOT
ATOM      1  C   UNL     1     -10.794  13.991  68.295  0.00  0.00    +0.146 C 
ATOM      2  C   UNL     1     -10.794  12.658  68.302  0.00  0.00    +0.077 C 
ATOM      3  S   UNL     1     -11.754  11.602  69.371  0.00  0.00    -0.101 S 
ATOM      4  C   UNL     1     -10.937   9.932  68.913  0.00  0.00    +0.087 C 
ATOM      5  C   UNL     1      -9.483  10.454  69.321  0.00  0.00    +0.078 C 
ATOM      6  S   UNL     1      -9.298  11.704  67.999  0.00  0.00    -0.104 S 
ENDROOT
BRANCH   4   7
ATOM      7  C   UNL     1     -11.182   9.179  70.261  0.00  0.00    -0.001 A 
ATOM      8  C   UNL     1     -11.219   7.799  70.076  0.00  0.00    +0.055 A 
ATOM      9 CL   UNL     1     -10.050   7.035  69.005  0.00  0.00    -0.083 Cl
ATOM     10  C   UNL     1     -12.124   6.997  70.763  0.00  0.00    +0.022 A 
ATOM     11  C   UNL     1     -13.016   7.573  71.660  0.00  0.00    +0.058 A 
ATOM     12 CL   UNL     1     -14.641   6.938  71.902  0.00  0.00    -0.082 Cl
ATOM     13  C   UNL     1     -12.641   8.827  72.125  0.00  0.00    +0.011 A 
ATOM     14  C   UNL     1     -11.962   9.666  71.246  0.00  0.00    -0.002 A 
ENDBRANCH   4   7
BRANCH   1  15
ATOM     15  N   UNL     1     -10.263  14.586  67.113  0.00  0.00    -0.277 N 
ATOM     16  C   UNL     1     -10.853  14.781  65.935  0.00  0.00    +0.183 A 
ATOM     17  N   UNL     1     -10.187  15.737  65.241  0.00  0.00    -0.222 NA
ATOM     18  C   UNL     1      -9.395  16.392  66.125  0.00  0.00    +0.120 A 
ATOM     19  C   UNL     1      -9.260  15.498  67.175  0.00  0.00    +0.103 A 
ENDBRANCH   1  15
BRANCH   1  21
ATOM     20  N   UNL     1     -12.189  15.376  69.865  0.00  0.00    -0.189 NA
ATOM     21  C   UNL     1     -11.657  14.731  69.172  0.00  0.00    +0.119 C 
ENDBRANCH   1  21
TORSDOF 3
ENDMDL
