MODEL 1
REMARK VINA RESULT:      -6.3      0.000      0.000
REMARK  Name = 
REMARK  10 active torsions:
REMARK  status: ('A' for Active; 'I' for Inactive)
REMARK    1  A    between atoms: C_2  and  C_3
REMARK    2  A    between atoms: C_3  and  C_4
REMARK    3  A    between atoms: C_4  and  O_5
REMARK    4  A    between atoms: O_5  and  C_6
REMARK    5  A    between atoms: C_8  and  C_9
REMARK    6  A    between atoms: N_11  and  C_12
REMARK    7  A    between atoms: C_12  and  C_13
REMARK    8  A    between atoms: C_13  and  N_14
REMARK    9  A    between atoms: N_14  and  C_15
REMARK   10  A    between atoms: N_14  and  C_17
REMARK                            x       y       z     vdW  Elec       q    Type
REMARK                         _______ _______ _______ _____ _____    ______ ____
ROOT
ATOM      1  C   UNL     1     -13.084  11.966  71.603  0.00  0.00    +0.225 A 
ATOM      2  N   UNL     1     -13.302  10.676  71.962  0.00  0.00    -0.212 NA
ATOM      3  C   UNL     1     -12.494   9.669  71.603  0.00  0.00    +0.085 A 
ATOM      4  C   UNL     1     -11.440   9.958  70.745  0.00  0.00    +0.022 A 
ATOM      5  C   UNL     1     -10.256   9.259  70.789  0.00  0.00    +0.002 A 
ATOM      6  C   UNL     1     -10.136   8.198  71.677  0.00  0.00    +0.000 A 
ATOM      7  C   UNL     1     -11.125   7.932  72.617  0.00  0.00    +0.002 A 
ATOM      8  C   UNL     1     -11.498  11.146  70.028  0.00  0.00    +0.061 A 
ATOM      9  C   UNL     1     -12.362   8.498  72.334  0.00  0.00    +0.019 A 
ATOM     10  C   UNL     1     -12.380  12.144  70.418  0.00  0.00    +0.062 A 
ENDROOT
BRANCH   8  11
ATOM     11  C   UNL     1     -10.811  11.177  68.734  0.00  0.00    +0.265 C 
ATOM     12  N   UNL     1     -11.479  10.898  67.523  0.00  0.00    -0.200 NA
ATOM     13  O   UNL     1      -9.575  11.434  68.655  0.00  0.00    -0.268 OA
BRANCH  12  14
ATOM     14  C   UNL     1     -11.164  11.588  66.298  0.00  0.00    +0.133 C 
BRANCH  14  15
ATOM     15  C   UNL     1     -11.746  12.978  66.233  0.00  0.00    +0.096 C 
BRANCH  15  16
ATOM     16  N   UNL     1     -10.656  13.906  66.016  0.00  0.00    -0.271 NA
BRANCH  16  17
ATOM     17  C   UNL     1     -10.258  14.517  67.265  0.00  0.00    +0.072 C 
ATOM     18  C   UNL     1     -11.453  14.907  68.112  0.00  0.00    +0.019 C 
ENDBRANCH  16  17
BRANCH  16  19
ATOM     19  C   UNL     1     -11.016  14.921  65.064  0.00  0.00    +0.072 C 
ATOM     20  C   UNL     1     -12.258  14.588  64.287  0.00  0.00    +0.019 C 
ENDBRANCH  16  19
ENDBRANCH  15  16
ENDBRANCH  14  15
ENDBRANCH  12  14
ENDBRANCH   8  11
BRANCH   1  21
ATOM     21  O   UNL     1     -13.345  13.026  72.476  0.00  0.00    -0.460 OA
BRANCH  21  22
ATOM     22  C   UNL     1     -14.265  14.053  72.123  0.00  0.00    +0.207 C 
BRANCH  22  23
ATOM     23  C   UNL     1     -13.638  15.403  72.340  0.00  0.00    +0.047 C 
BRANCH  23  25
ATOM     24  C   UNL     1     -12.445  15.688  74.533  0.00  0.00    +0.000 C 
ATOM     25  C   UNL     1     -12.312  15.297  73.081  0.00  0.00    +0.004 C 
ENDBRANCH  23  25
ENDBRANCH  22  23
ENDBRANCH  21  22
ENDBRANCH   1  21
TORSDOF 10
ENDMDL
MODEL 2
REMARK VINA RESULT:      -6.3      1.298      1.879
REMARK  Name = 
REMARK  10 active torsions:
REMARK  status: ('A' for Active; 'I' for Inactive)
REMARK    1  A    between atoms: C_2  and  C_3
REMARK    2  A    between atoms: C_3  and  C_4
REMARK    3  A    between atoms: C_4  and  O_5
REMARK    4  A    between atoms: O_5  and  C_6
REMARK    5  A    between atoms: C_8  and  C_9
REMARK    6  A    between atoms: N_11  and  C_12
REMARK    7  A    between atoms: C_12  and  C_13
REMARK    8  A    between atoms: C_13  and  N_14
REMARK    9  A    between atoms: N_14  and  C_15
REMARK   10  A    between atoms: N_14  and  C_17
REMARK                            x       y       z     vdW  Elec       q    Type
REMARK                         _______ _______ _______ _____ _____    ______ ____
ROOT
ATOM      1  C   UNL     1     -13.225  11.996  71.796  0.00  0.00    +0.225 A 
ATOM      2  N   UNL     1     -13.185  10.666  72.054  0.00  0.00    -0.212 NA
ATOM      3  C   UNL     1     -12.318   9.830  71.465  0.00  0.00    +0.085 A 
ATOM      4  C   UNL     1     -11.489  10.348  70.477  0.00  0.00    +0.022 A 
ATOM      5  C   UNL     1     -10.227   9.847  70.253  0.00  0.00    +0.002 A 
ATOM      6  C   UNL     1      -9.797   8.756  70.997  0.00  0.00    +0.000 A 
ATOM      7  C   UNL     1     -10.551   8.266  72.056  0.00  0.00    +0.002 A 
ATOM      8  C   UNL     1     -11.847  11.561  69.904  0.00  0.00    +0.061 A 
ATOM      9  C   UNL     1     -11.887   8.645  72.042  0.00  0.00    +0.019 A 
ATOM     10  C   UNL     1     -12.779  12.373  70.534  0.00  0.00    +0.062 A 
ENDROOT
BRANCH   8  11
ATOM     11  C   UNL     1     -11.417  11.798  68.524  0.00  0.00    +0.265 C 
ATOM     12  N   UNL     1     -10.507  12.823  68.186  0.00  0.00    -0.200 NA
ATOM     13  O   UNL     1     -11.868  11.102  67.569  0.00  0.00    -0.268 OA
BRANCH  12  14
ATOM     14  C   UNL     1      -9.524  12.662  67.144  0.00  0.00    +0.133 C 
BRANCH  14  15
ATOM     15  C   UNL     1      -9.610  13.724  66.078  0.00  0.00    +0.096 C 
BRANCH  15  16
ATOM     16  N   UNL     1     -10.852  13.531  65.358  0.00  0.00    -0.271 NA
BRANCH  16  17
ATOM     17  C   UNL     1     -10.625  12.740  64.167  0.00  0.00    +0.072 C 
ATOM     18  C   UNL     1     -11.924  12.356  63.487  0.00  0.00    +0.019 C 
ENDBRANCH  16  17
BRANCH  16  19
ATOM     19  C   UNL     1     -11.453  14.788  65.007  0.00  0.00    +0.072 C 
ATOM     20  C   UNL     1     -10.589  15.970  65.340  0.00  0.00    +0.019 C 
ENDBRANCH  16  19
ENDBRANCH  15  16
ENDBRANCH  14  15
ENDBRANCH  12  14
ENDBRANCH   8  11
BRANCH   1  21
ATOM     21  O   UNL     1     -13.476  12.933  72.803  0.00  0.00    -0.460 OA
BRANCH  21  22
ATOM     22  C   UNL     1     -13.642  14.312  72.493  0.00  0.00    +0.207 C 
BRANCH  22  23
ATOM     23  C   UNL     1     -12.831  15.154  73.438  0.00  0.00    +0.047 C 
BRANCH  23  25
ATOM     24  C   UNL     1     -11.925  15.923  71.224  0.00  0.00    +0.000 C 
ATOM     25  C   UNL     1     -12.028  16.217  72.700  0.00  0.00    +0.004 C 
ENDBRANCH  23  25
ENDBRANCH  22  23
ENDBRANCH  21  22
ENDBRANCH   1  21
TORSDOF 10
ENDMDL
MODEL 3
REMARK VINA RESULT:      -6.1      3.357      6.320
REMARK  Name = 
REMARK  10 active torsions:
REMARK  status: ('A' for Active; 'I' for Inactive)
REMARK    1  A    between atoms: C_2  and  C_3
REMARK    2  A    between atoms: C_3  and  C_4
REMARK    3  A    between atoms: C_4  and  O_5
REMARK    4  A    between atoms: O_5  and  C_6
REMARK    5  A    between atoms: C_8  and  C_9
REMARK    6  A    between atoms: N_11  and  C_12
REMARK    7  A    between atoms: C_12  and  C_13
REMARK    8  A    between atoms: C_13  and  N_14
REMARK    9  A    between atoms: N_14  and  C_15
REMARK   10  A    between atoms: N_14  and  C_17
REMARK                            x       y       z     vdW  Elec       q    Type
REMARK                         _______ _______ _______ _____ _____    ______ ____
ROOT
ATOM      1  C   UNL     1     -12.128  12.882  66.066  0.00  0.00    +0.225 A 
ATOM      2  N   UNL     1     -11.675  11.822  66.781  0.00  0.00    -0.212 NA
ATOM      3  C   UNL     1     -11.501  11.856  68.110  0.00  0.00    +0.085 A 
ATOM      4  C   UNL     1     -11.706  13.067  68.760  0.00  0.00    +0.022 A 
ATOM      5  C   UNL     1     -12.163  13.126  70.057  0.00  0.00    +0.002 A 
ATOM      6  C   UNL     1     -12.366  11.940  70.751  0.00  0.00    +0.000 A 
ATOM      7  C   UNL     1     -12.264  10.708  70.114  0.00  0.00    +0.002 A 
ATOM      8  C   UNL     1     -11.710  14.222  67.989  0.00  0.00    +0.061 A 
ATOM      9  C   UNL     1     -11.561  10.730  68.917  0.00  0.00    +0.019 A 
ATOM     10  C   UNL     1     -11.855  14.131  66.612  0.00  0.00    +0.062 A 
ENDROOT
BRANCH   8  11
ATOM     11  C   UNL     1     -11.291  15.462  68.646  0.00  0.00    +0.265 C 
ATOM     12  N   UNL     1      -9.931  15.804  68.809  0.00  0.00    -0.200 NA
ATOM     13  O   UNL     1     -12.140  16.272  69.119  0.00  0.00    -0.268 OA
BRANCH  12  14
ATOM     14  C   UNL     1      -9.467  17.165  68.717  0.00  0.00    +0.133 C 
BRANCH  14  15
ATOM     15  C   UNL     1      -9.108  17.576  67.312  0.00  0.00    +0.096 C 
BRANCH  15  16
ATOM     16  N   UNL     1      -8.607  18.934  67.361  0.00  0.00    -0.271 NA
BRANCH  16  17
ATOM     17  C   UNL     1      -7.926  19.175  68.615  0.00  0.00    +0.072 C 
ATOM     18  C   UNL     1      -6.596  19.872  68.413  0.00  0.00    +0.019 C 
ENDBRANCH  16  17
BRANCH  16  19
ATOM     19  C   UNL     1      -9.668  19.888  67.186  0.00  0.00    +0.072 C 
ATOM     20  C   UNL     1     -10.523  19.607  65.984  0.00  0.00    +0.019 C 
ENDBRANCH  16  19
ENDBRANCH  15  16
ENDBRANCH  14  15
ENDBRANCH  12  14
ENDBRANCH   8  11
BRANCH   1  21
ATOM     21  O   UNL     1     -13.000  12.720  64.986  0.00  0.00    -0.460 OA
BRANCH  21  22
ATOM     22  C   UNL     1     -12.571  12.081  63.789  0.00  0.00    +0.207 C 
BRANCH  22  23
ATOM     23  C   UNL     1     -11.115  12.368  63.545  0.00  0.00    +0.047 C 
BRANCH  23  25
ATOM     24  C   UNL     1      -9.442  10.664  64.329  0.00  0.00    +0.000 C 
ATOM     25  C   UNL     1     -10.341  11.103  63.198  0.00  0.00    +0.004 C 
ENDBRANCH  23  25
ENDBRANCH  22  23
ENDBRANCH  21  22
ENDBRANCH   1  21
TORSDOF 10
ENDMDL
MODEL 4
REMARK VINA RESULT:      -6.1      0.907      1.651
REMARK  Name = 
REMARK  10 active torsions:
REMARK  status: ('A' for Active; 'I' for Inactive)
REMARK    1  A    between atoms: C_2  and  C_3
REMARK    2  A    between atoms: C_3  and  C_4
REMARK    3  A    between atoms: C_4  and  O_5
REMARK    4  A    between atoms: O_5  and  C_6
REMARK    5  A    between atoms: C_8  and  C_9
REMARK    6  A    between atoms: N_11  and  C_12
REMARK    7  A    between atoms: C_12  and  C_13
REMARK    8  A    between atoms: C_13  and  N_14
REMARK    9  A    between atoms: N_14  and  C_15
REMARK   10  A    between atoms: N_14  and  C_17
REMARK                            x       y       z     vdW  Elec       q    Type
REMARK                         _______ _______ _______ _____ _____    ______ ____
ROOT
ATOM      1  C   UNL     1     -12.890  11.452  71.319  0.00  0.00    +0.225 A 
ATOM      2  N   UNL     1     -13.062  10.192  71.792  0.00  0.00    -0.212 NA
ATOM      3  C   UNL     1     -12.155   9.219  71.632  0.00  0.00    +0.085 A 
ATOM      4  C   UNL     1     -11.033   9.499  70.861  0.00  0.00    +0.022 A 
ATOM      5  C   UNL     1      -9.818   8.901  71.105  0.00  0.00    +0.002 A 
ATOM      6  C   UNL     1      -9.729   7.948  72.112  0.00  0.00    +0.000 A 
ATOM      7  C   UNL     1     -10.798   7.704  72.966  0.00  0.00    +0.002 A 
ATOM      8  C   UNL     1     -11.088  10.600  70.017  0.00  0.00    +0.061 A 
ATOM      9  C   UNL     1     -12.029   8.142  72.496  0.00  0.00    +0.019 A 
ATOM     10  C   UNL     1     -12.071  11.562  70.201  0.00  0.00    +0.062 A 
ENDROOT
BRANCH   8  11
ATOM     11  C   UNL     1     -10.265  10.552  68.806  0.00  0.00    +0.265 C 
ATOM     12  N   UNL     1     -10.783  10.137  67.561  0.00  0.00    -0.200 NA
ATOM     13  O   UNL     1      -9.038  10.860  68.835  0.00  0.00    -0.268 OA
BRANCH  12  14
ATOM     14  C   UNL     1     -10.362  10.733  66.318  0.00  0.00    +0.133 C 
BRANCH  14  15
ATOM     15  C   UNL     1     -10.528  12.231  66.292  0.00  0.00    +0.096 C 
BRANCH  15  16
ATOM     16  N   UNL     1     -11.943  12.523  66.393  0.00  0.00    -0.271 NA
BRANCH  16  17
ATOM     17  C   UNL     1     -12.526  12.652  65.075  0.00  0.00    +0.072 C 
ATOM     18  C   UNL     1     -11.816  13.699  64.241  0.00  0.00    +0.019 C 
ENDBRANCH  16  17
BRANCH  16  19
ATOM     19  C   UNL     1     -12.176  13.720  67.154  0.00  0.00    +0.072 C 
ATOM     20  C   UNL     1     -10.949  14.216  67.865  0.00  0.00    +0.019 C 
ENDBRANCH  16  19
ENDBRANCH  15  16
ENDBRANCH  14  15
ENDBRANCH  12  14
ENDBRANCH   8  11
BRANCH   1  21
ATOM     21  O   UNL     1     -13.316  12.572  72.038  0.00  0.00    -0.460 OA
BRANCH  21  22
ATOM     22  C   UNL     1     -13.216  13.878  71.483  0.00  0.00    +0.207 C 
BRANCH  22  23
ATOM     23  C   UNL     1     -13.900  14.873  72.379  0.00  0.00    +0.047 C 
BRANCH  23  25
ATOM     24  C   UNL     1     -12.476  15.523  74.345  0.00  0.00    +0.000 C 
ATOM     25  C   UNL     1     -12.919  15.889  72.950  0.00  0.00    +0.004 C 
ENDBRANCH  23  25
ENDBRANCH  22  23
ENDBRANCH  21  22
ENDBRANCH   1  21
TORSDOF 10
ENDMDL
MODEL 5
REMARK VINA RESULT:      -6.1      3.495      6.602
REMARK  Name = 
REMARK  10 active torsions:
REMARK  status: ('A' for Active; 'I' for Inactive)
REMARK    1  A    between atoms: C_2  and  C_3
REMARK    2  A    between atoms: C_3  and  C_4
REMARK    3  A    between atoms: C_4  and  O_5
REMARK    4  A    between atoms: O_5  and  C_6
REMARK    5  A    between atoms: C_8  and  C_9
REMARK    6  A    between atoms: N_11  and  C_12
REMARK    7  A    between atoms: C_12  and  C_13
REMARK    8  A    between atoms: C_13  and  N_14
REMARK    9  A    between atoms: N_14  and  C_15
REMARK   10  A    between atoms: N_14  and  C_17
REMARK                            x       y       z     vdW  Elec       q    Type
REMARK                         _______ _______ _______ _____ _____    ______ ____
ROOT
ATOM      1  C   UNL     1     -11.453  16.171  69.244  0.00  0.00    +0.225 A 
ATOM      2  N   UNL     1     -10.564  17.177  69.437  0.00  0.00    -0.212 NA
ATOM      3  C   UNL     1     -10.045  17.898  68.435  0.00  0.00    +0.085 A 
ATOM      4  C   UNL     1     -10.367  17.527  67.134  0.00  0.00    +0.022 A 
ATOM      5  C   UNL     1     -10.448  18.449  66.116  0.00  0.00    +0.002 A 
ATOM      6  C   UNL     1     -10.140  19.777  66.386  0.00  0.00    +0.000 A 
ATOM      7  C   UNL     1      -9.904  20.209  67.686  0.00  0.00    +0.002 A 
ATOM      8  C   UNL     1     -10.880  16.252  66.934  0.00  0.00    +0.061 A 
ATOM      9  C   UNL     1      -9.589  19.199  68.586  0.00  0.00    +0.019 A 
ATOM     10  C   UNL     1     -11.371  15.530  68.013  0.00  0.00    +0.062 A 
ENDROOT
BRANCH   8  11
ATOM     11  C   UNL     1     -10.629  15.631  65.632  0.00  0.00    +0.265 C 
ATOM     12  N   UNL     1     -10.080  14.337  65.510  0.00  0.00    -0.200 NA
ATOM     13  O   UNL     1     -10.875  16.247  64.554  0.00  0.00    -0.268 OA
BRANCH  12  14
ATOM     14  C   UNL     1     -10.484  13.428  64.467  0.00  0.00    +0.133 C 
BRANCH  14  15
ATOM     15  C   UNL     1     -11.486  12.401  64.929  0.00  0.00    +0.096 C 
BRANCH  15  16
ATOM     16  N   UNL     1     -10.911  11.090  64.709  0.00  0.00    -0.271 NA
BRANCH  16  17
ATOM     17  C   UNL     1     -10.115  10.692  65.850  0.00  0.00    +0.072 C 
ATOM     18  C   UNL     1     -10.911  10.732  67.139  0.00  0.00    +0.019 C 
ENDBRANCH  16  17
BRANCH  16  19
ATOM     19  C   UNL     1     -10.110  11.064  63.516  0.00  0.00    +0.072 C 
ATOM     20  C   UNL     1      -9.265   9.828  63.398  0.00  0.00    +0.019 C 
ENDBRANCH  16  19
ENDBRANCH  15  16
ENDBRANCH  14  15
ENDBRANCH  12  14
ENDBRANCH   8  11
BRANCH   1  21
ATOM     21  O   UNL     1     -12.518  15.951  70.123  0.00  0.00    -0.460 OA
BRANCH  21  22
ATOM     22  C   UNL     1     -12.730  14.672  70.709  0.00  0.00    +0.207 C 
BRANCH  22  23
ATOM     23  C   UNL     1     -13.874  14.734  71.681  0.00  0.00    +0.047 C 
BRANCH  23  25
ATOM     24  C   UNL     1     -12.544  15.212  73.759  0.00  0.00    +0.000 C 
ATOM     25  C   UNL     1     -13.603  15.719  72.811  0.00  0.00    +0.004 C 
ENDBRANCH  23  25
ENDBRANCH  22  23
ENDBRANCH  21  22
ENDBRANCH   1  21
TORSDOF 10
ENDMDL
MODEL 6
REMARK VINA RESULT:      -6.0      2.539      7.661
REMARK  Name = 
REMARK  10 active torsions:
REMARK  status: ('A' for Active; 'I' for Inactive)
REMARK    1  A    between atoms: C_2  and  C_3
REMARK    2  A    between atoms: C_3  and  C_4
REMARK    3  A    between atoms: C_4  and  O_5
REMARK    4  A    between atoms: O_5  and  C_6
REMARK    5  A    between atoms: C_8  and  C_9
REMARK    6  A    between atoms: N_11  and  C_12
REMARK    7  A    between atoms: C_12  and  C_13
REMARK    8  A    between atoms: C_13  and  N_14
REMARK    9  A    between atoms: N_14  and  C_15
REMARK   10  A    between atoms: N_14  and  C_17
REMARK                            x       y       z     vdW  Elec       q    Type
REMARK                         _______ _______ _______ _____ _____    ______ ____
ROOT
ATOM      1  C   UNL     1     -12.164  14.192  64.997  0.00  0.00    +0.225 A 
ATOM      2  N   UNL     1     -11.337  15.251  65.176  0.00  0.00    -0.212 NA
ATOM      3  C   UNL     1     -10.457  15.332  66.184  0.00  0.00    +0.085 A 
ATOM      4  C   UNL     1     -10.470  14.321  67.137  0.00  0.00    +0.022 A 
ATOM      5  C   UNL     1      -9.328  13.939  67.804  0.00  0.00    +0.002 A 
ATOM      6  C   UNL     1      -8.145  14.625  67.558  0.00  0.00    +0.000 A 
ATOM      7  C   UNL     1      -8.065  15.577  66.548  0.00  0.00    +0.002 A 
ATOM      8  C   UNL     1     -11.596  13.512  67.207  0.00  0.00    +0.061 A 
ATOM      9  C   UNL     1      -9.289  16.076  66.120  0.00  0.00    +0.019 A 
ATOM     10  C   UNL     1     -12.497  13.493  66.152  0.00  0.00    +0.062 A 
ENDROOT
BRANCH   8  11
ATOM     11  C   UNL     1     -11.912  12.921  68.510  0.00  0.00    +0.265 C 
ATOM     12  N   UNL     1     -12.000  11.526  68.700  0.00  0.00    -0.200 NA
ATOM     13  O   UNL     1     -12.144  13.647  69.519  0.00  0.00    -0.268 OA
BRANCH  12  14
ATOM     14  C   UNL     1     -11.563  10.889  69.916  0.00  0.00    +0.133 C 
BRANCH  14  15
ATOM     15  C   UNL     1     -12.680  10.660  70.902  0.00  0.00    +0.096 C 
BRANCH  15  16
ATOM     16  N   UNL     1     -12.870   9.230  71.033  0.00  0.00    -0.271 NA
BRANCH  16  17
ATOM     17  C   UNL     1     -13.631   8.930  72.226  0.00  0.00    +0.072 C 
ATOM     18  C   UNL     1     -14.793   8.000  71.940  0.00  0.00    +0.019 C 
ENDBRANCH  16  17
BRANCH  16  19
ATOM     19  C   UNL     1     -11.612   8.537  71.064  0.00  0.00    +0.072 C 
ATOM     20  C   UNL     1     -11.169   8.178  72.454  0.00  0.00    +0.019 C 
ENDBRANCH  16  19
ENDBRANCH  15  16
ENDBRANCH  14  15
ENDBRANCH  12  14
ENDBRANCH   8  11
BRANCH   1  21
ATOM     21  O   UNL     1     -12.470  13.705  63.723  0.00  0.00    -0.460 OA
BRANCH  21  22
ATOM     22  C   UNL     1     -12.138  12.371  63.351  0.00  0.00    +0.207 C 
BRANCH  22  23
ATOM     23  C   UNL     1     -10.667  12.132  63.550  0.00  0.00    +0.047 C 
BRANCH  23  25
ATOM     24  C   UNL     1      -9.240  11.139  65.365  0.00  0.00    +0.000 C 
ATOM     25  C   UNL     1     -10.407  10.918  64.433  0.00  0.00    +0.004 C 
ENDBRANCH  23  25
ENDBRANCH  22  23
ENDBRANCH  21  22
ENDBRANCH   1  21
TORSDOF 10
ENDMDL
MODEL 7
REMARK VINA RESULT:      -6.0      3.030      5.904
REMARK  Name = 
REMARK  10 active torsions:
REMARK  status: ('A' for Active; 'I' for Inactive)
REMARK    1  A    between atoms: C_2  and  C_3
REMARK    2  A    between atoms: C_3  and  C_4
REMARK    3  A    between atoms: C_4  and  O_5
REMARK    4  A    between atoms: O_5  and  C_6
REMARK    5  A    between atoms: C_8  and  C_9
REMARK    6  A    between atoms: N_11  and  C_12
REMARK    7  A    between atoms: C_12  and  C_13
REMARK    8  A    between atoms: C_13  and  N_14
REMARK    9  A    between atoms: N_14  and  C_15
REMARK   10  A    between atoms: N_14  and  C_17
REMARK                            x       y       z     vdW  Elec       q    Type
REMARK                         _______ _______ _______ _____ _____    ______ ____
ROOT
ATOM      1  C   UNL     1     -11.596  12.529  68.568  0.00  0.00    +0.225 A 
ATOM      2  N   UNL     1     -11.987  12.262  69.839  0.00  0.00    -0.212 NA
ATOM      3  C   UNL     1     -12.266  13.219  70.736  0.00  0.00    +0.085 A 
ATOM      4  C   UNL     1     -12.048  14.540  70.363  0.00  0.00    +0.022 A 
ATOM      5  C   UNL     1     -12.813  15.570  70.861  0.00  0.00    +0.002 A 
ATOM      6  C   UNL     1     -13.788  15.284  71.808  0.00  0.00    +0.000 A 
ATOM      7  C   UNL     1     -14.104  13.972  72.141  0.00  0.00    +0.002 A 
ATOM      8  C   UNL     1     -11.230  14.775  69.266  0.00  0.00    +0.061 A 
ATOM      9  C   UNL     1     -13.133  13.037  71.802  0.00  0.00    +0.019 A 
ATOM     10  C   UNL     1     -10.940  13.741  68.388  0.00  0.00    +0.062 A 
ENDROOT
BRANCH   8  11
ATOM     11  C   UNL     1     -10.496  16.043  69.242  0.00  0.00    +0.265 C 
ATOM     12  N   UNL     1      -9.101  16.100  69.042  0.00  0.00    -0.200 NA
ATOM     13  O   UNL     1     -11.089  17.146  69.427  0.00  0.00    -0.268 OA
BRANCH  12  14
ATOM     14  C   UNL     1      -8.477  17.163  68.295  0.00  0.00    +0.133 C 
BRANCH  14  15
ATOM     15  C   UNL     1      -8.295  16.835  66.834  0.00  0.00    +0.096 C 
BRANCH  15  16
ATOM     16  N   UNL     1      -8.753  17.972  66.064  0.00  0.00    -0.271 NA
BRANCH  16  17
ATOM     17  C   UNL     1      -7.992  19.154  66.409  0.00  0.00    +0.072 C 
ATOM     18  C   UNL     1      -6.771  19.320  65.527  0.00  0.00    +0.019 C 
ENDBRANCH  16  17
BRANCH  16  19
ATOM     19  C   UNL     1     -10.155  18.212  66.269  0.00  0.00    +0.072 C 
ATOM     20  C   UNL     1     -10.492  19.670  66.400  0.00  0.00    +0.019 C 
ENDBRANCH  16  19
ENDBRANCH  15  16
ENDBRANCH  14  15
ENDBRANCH  12  14
ENDBRANCH   8  11
BRANCH   1  21
ATOM     21  O   UNL     1     -12.025  11.750  67.489  0.00  0.00    -0.460 OA
BRANCH  21  22
ATOM     22  C   UNL     1     -11.441  11.903  66.200  0.00  0.00    +0.207 C 
BRANCH  22  23
ATOM     23  C   UNL     1     -12.386  12.635  65.290  0.00  0.00    +0.047 C 
BRANCH  23  25
ATOM     24  C   UNL     1     -11.101  14.766  64.944  0.00  0.00    +0.000 C 
ATOM     25  C   UNL     1     -11.644  13.517  64.294  0.00  0.00    +0.004 C 
ENDBRANCH  23  25
ENDBRANCH  22  23
ENDBRANCH  21  22
ENDBRANCH   1  21
TORSDOF 10
ENDMDL
MODEL 8
REMARK VINA RESULT:      -6.0      1.777      6.040
REMARK  Name = 
REMARK  10 active torsions:
REMARK  status: ('A' for Active; 'I' for Inactive)
REMARK    1  A    between atoms: C_2  and  C_3
REMARK    2  A    between atoms: C_3  and  C_4
REMARK    3  A    between atoms: C_4  and  O_5
REMARK    4  A    between atoms: O_5  and  C_6
REMARK    5  A    between atoms: C_8  and  C_9
REMARK    6  A    between atoms: N_11  and  C_12
REMARK    7  A    between atoms: C_12  and  C_13
REMARK    8  A    between atoms: C_13  and  N_14
REMARK    9  A    between atoms: N_14  and  C_15
REMARK   10  A    between atoms: N_14  and  C_17
REMARK                            x       y       z     vdW  Elec       q    Type
REMARK                         _______ _______ _______ _____ _____    ______ ____
ROOT
ATOM      1  C   UNL     1     -11.662  15.171  69.029  0.00  0.00    +0.225 A 
ATOM      2  N   UNL     1     -11.168  15.606  67.843  0.00  0.00    -0.212 NA
ATOM      3  C   UNL     1     -11.104  14.835  66.749  0.00  0.00    +0.085 A 
ATOM      4  C   UNL     1     -11.476  13.502  66.873  0.00  0.00    +0.022 A 
ATOM      5  C   UNL     1     -12.039  12.805  65.828  0.00  0.00    +0.002 A 
ATOM      6  C   UNL     1     -12.181  13.438  64.599  0.00  0.00    +0.000 A 
ATOM      7  C   UNL     1     -11.910  14.793  64.454  0.00  0.00    +0.002 A 
ATOM      8  C   UNL     1     -11.529  12.962  68.151  0.00  0.00    +0.061 A 
ATOM      9  C   UNL     1     -11.119  15.339  65.457  0.00  0.00    +0.019 A 
ATOM     10  C   UNL     1     -11.555  13.804  69.254  0.00  0.00    +0.062 A 
ENDROOT
BRANCH   8  11
ATOM     11  C   UNL     1     -11.285  11.523  68.277  0.00  0.00    +0.265 C 
ATOM     12  N   UNL     1     -10.008  11.001  68.576  0.00  0.00    -0.200 NA
ATOM     13  O   UNL     1     -12.213  10.683  68.097  0.00  0.00    -0.268 OA
BRANCH  12  14
ATOM     14  C   UNL     1      -9.832   9.837  69.407  0.00  0.00    +0.133 C 
BRANCH  14  15
ATOM     15  C   UNL     1     -10.570   9.926  70.718  0.00  0.00    +0.096 C 
BRANCH  15  16
ATOM     16  N   UNL     1     -11.053   8.601  71.046  0.00  0.00    -0.271 NA
BRANCH  16  17
ATOM     17  C   UNL     1     -10.852   7.701  69.931  0.00  0.00    +0.072 C 
ATOM     18  C   UNL     1     -11.536   6.366  70.149  0.00  0.00    +0.019 C 
ENDBRANCH  16  17
BRANCH  16  19
ATOM     19  C   UNL     1     -12.443   8.628  71.413  0.00  0.00    +0.072 C 
ATOM     20  C   UNL     1     -12.958  10.014  71.676  0.00  0.00    +0.019 C 
ENDBRANCH  16  19
ENDBRANCH  15  16
ENDBRANCH  14  15
ENDBRANCH  12  14
ENDBRANCH   8  11
BRANCH   1  21
ATOM     21  O   UNL     1     -12.426  16.000  69.855  0.00  0.00    -0.460 OA
BRANCH  21  22
ATOM     22  C   UNL     1     -12.968  15.514  71.078  0.00  0.00    +0.207 C 
BRANCH  22  23
ATOM     23  C   UNL     1     -12.065  15.878  72.223  0.00  0.00    +0.047 C 
BRANCH  23  25
ATOM     24  C   UNL     1     -12.485  15.881  74.701  0.00  0.00    +0.000 C 
ATOM     25  C   UNL     1     -12.352  15.034  73.459  0.00  0.00    +0.004 C 
ENDBRANCH  23  25
ENDBRANCH  22  23
ENDBRANCH  21  22
ENDBRANCH   1  21
TORSDOF 10
ENDMDL
MODEL 9
REMARK VINA RESULT:      -5.9      3.280      5.585
REMARK  Name = 
REMARK  10 active torsions:
REMARK  status: ('A' for Active; 'I' for Inactive)
REMARK    1  A    between atoms: C_2  and  C_3
REMARK    2  A    between atoms: C_3  and  C_4
REMARK    3  A    between atoms: C_4  and  O_5
REMARK    4  A    between atoms: O_5  and  C_6
REMARK    5  A    between atoms: C_8  and  C_9
REMARK    6  A    between atoms: N_11  and  C_12
REMARK    7  A    between atoms: C_12  and  C_13
REMARK    8  A    between atoms: C_13  and  N_14
REMARK    9  A    between atoms: N_14  and  C_15
REMARK   10  A    between atoms: N_14  and  C_17
REMARK                            x       y       z     vdW  Elec       q    Type
REMARK                         _______ _______ _______ _____ _____    ______ ____
ROOT
ATOM      1  C   UNL     1     -10.935  16.011  68.608  0.00  0.00    +0.225 A 
ATOM      2  N   UNL     1     -11.560  15.244  69.537  0.00  0.00    -0.212 NA
ATOM      3  C   UNL     1     -12.011  14.008  69.284  0.00  0.00    +0.085 A 
ATOM      4  C   UNL     1     -11.911  13.536  67.980  0.00  0.00    +0.022 A 
ATOM      5  C   UNL     1     -11.737  12.199  67.703  0.00  0.00    +0.002 A 
ATOM      6  C   UNL     1     -11.721  11.293  68.756  0.00  0.00    +0.000 A 
ATOM      7  C   UNL     1     -11.723  11.726  70.077  0.00  0.00    +0.002 A 
ATOM      8  C   UNL     1     -11.711  14.467  66.970  0.00  0.00    +0.061 A 
ATOM      9  C   UNL     1     -12.156  13.033  70.259  0.00  0.00    +0.019 A 
ATOM     10  C   UNL     1     -11.280  15.748  67.288  0.00  0.00    +0.062 A 
ENDROOT
BRANCH   8  11
ATOM     11  C   UNL     1     -12.222  14.127  65.640  0.00  0.00    +0.265 C 
ATOM     12  N   UNL     1     -11.366  13.875  64.547  0.00  0.00    -0.200 NA
ATOM     13  O   UNL     1     -13.465  14.071  65.411  0.00  0.00    -0.268 OA
BRANCH  12  14
ATOM     14  C   UNL     1     -11.670  12.882  63.548  0.00  0.00    +0.133 C 
BRANCH  14  15
ATOM     15  C   UNL     1     -11.336  11.478  63.984  0.00  0.00    +0.096 C 
BRANCH  15  16
ATOM     16  N   UNL     1      -9.899  11.320  63.908  0.00  0.00    -0.271 NA
BRANCH  16  17
ATOM     17  C   UNL     1      -9.550  10.366  62.878  0.00  0.00    +0.072 C 
ATOM     18  C   UNL     1      -8.426  10.870  61.994  0.00  0.00    +0.019 C 
ENDBRANCH  16  17
BRANCH  16  19
ATOM     19  C   UNL     1      -9.351  10.904  65.170  0.00  0.00    +0.072 C 
ATOM     20  C   UNL     1      -9.546   9.440  65.444  0.00  0.00    +0.019 C 
ENDBRANCH  16  19
ENDBRANCH  15  16
ENDBRANCH  14  15
ENDBRANCH  12  14
ENDBRANCH   8  11
BRANCH   1  21
ATOM     21  O   UNL     1      -9.859  16.838  68.942  0.00  0.00    -0.460 OA
BRANCH  21  22
ATOM     22  C   UNL     1      -9.277  17.705  67.975  0.00  0.00    +0.207 C 
BRANCH  22  23
ATOM     23  C   UNL     1      -9.295  19.122  68.476  0.00  0.00    +0.047 C 
BRANCH  23  25
ATOM     24  C   UNL     1     -10.542  19.455  66.319  0.00  0.00    +0.000 C 
ATOM     25  C   UNL     1      -9.684  20.104  67.378  0.00  0.00    +0.004 C 
ENDBRANCH  23  25
ENDBRANCH  22  23
ENDBRANCH  21  22
ENDBRANCH   1  21
TORSDOF 10
ENDMDL
