MODEL 1
REMARK VINA RESULT:      -6.6      0.000      0.000
REMARK  Name = 
REMARK  2 active torsions:
REMARK  status: ('A' for Active; 'I' for Inactive)
REMARK    1  A    between atoms: N_2  and  C_3
REMARK    2  A    between atoms: C_11  and  C_12
REMARK                            x       y       z     vdW  Elec       q    Type
REMARK                         _______ _______ _______ _____ _____    ______ ____
ROOT
ATOM      1  C   UNL     1     -10.498  13.414  66.546  0.00  0.00    +0.078 C 
ATOM      2  C   UNL     1     -11.719  13.970  67.496  0.00  0.00    +0.045 C 
ATOM      3  C   UNL     1     -11.635  13.141  68.739  0.00  0.00    -0.006 A 
ATOM      4  C   UNL     1     -11.305  11.796  68.708  0.00  0.00    +0.055 A 
ATOM      5  N   UNL     1     -11.799  11.180  69.799  0.00  0.00    -0.250 NA
ATOM      6  C   UNL     1     -12.425  12.096  70.537  0.00  0.00    +0.081 A 
ATOM      7  C   UNL     1     -13.125  12.015  71.729  0.00  0.00    +0.019 A 
ATOM      8  C   UNL     1     -13.400  13.140  72.480  0.00  0.00    +0.006 A 
ATOM      9  C   UNL     1     -12.924  14.360  72.011  0.00  0.00    +0.057 A 
ATOM     10  C   UNL     1     -12.428  14.477  70.727  0.00  0.00    +0.006 A 
ATOM     11  C   UNL     1     -10.743  11.151  67.490  0.00  0.00    +0.047 C 
ATOM     12  C   UNL     1     -12.142  13.337  69.995  0.00  0.00    +0.015 A 
ATOM     13  C   UNL     1     -11.248  11.971  66.315  0.00  0.00    +0.024 C 
ENDROOT
BRANCH   9  14
ATOM     14  C   UNL     1     -13.551  15.541  72.583  0.00  0.00    +0.284 C 
ATOM     15  O   UNL     1     -14.636  15.910  72.102  0.00  0.00    -0.267 OA
ATOM     16  N   UNL     1     -13.069  16.163  73.750  0.00  0.00    -0.084 NA
ENDBRANCH   9  14
BRANCH   1  18
ATOM     17  C   UNL     1     -10.960  15.054  65.368  0.00  0.00    +0.107 C 
ATOM     18  N   UNL     1     -11.149  14.022  65.245  0.00  0.00    -0.218 NA
ENDBRANCH   1  18
TORSDOF 2
ENDMDL
MODEL 2
REMARK VINA RESULT:      -6.6      2.697      5.951
REMARK  Name = 
REMARK  2 active torsions:
REMARK  status: ('A' for Active; 'I' for Inactive)
REMARK    1  A    between atoms: N_2  and  C_3
REMARK    2  A    between atoms: C_11  and  C_12
REMARK                            x       y       z     vdW  Elec       q    Type
REMARK                         _______ _______ _______ _____ _____    ______ ____
ROOT
ATOM      1  C   UNL     1     -13.650  15.574  72.541  0.00  0.00    +0.078 C 
ATOM      2  C   UNL     1     -12.331  16.034  71.674  0.00  0.00    +0.045 C 
ATOM      3  C   UNL     1     -12.282  15.074  70.527  0.00  0.00    -0.006 A 
ATOM      4  C   UNL     1     -12.617  13.738  70.669  0.00  0.00    +0.055 A 
ATOM      5  N   UNL     1     -12.009  13.012  69.712  0.00  0.00    -0.250 NA
ATOM      6  C   UNL     1     -11.304  13.848  68.950  0.00  0.00    +0.081 A 
ATOM      7  C   UNL     1     -10.479  13.644  67.857  0.00  0.00    +0.019 A 
ATOM      8  C   UNL     1     -10.121  14.684  67.022  0.00  0.00    +0.006 A 
ATOM      9  C   UNL     1     -10.642  15.943  67.301  0.00  0.00    +0.057 A 
ATOM     10  C   UNL     1     -11.273  16.194  68.503  0.00  0.00    +0.006 A 
ATOM     11  C   UNL     1     -13.310  13.224  71.881  0.00  0.00    +0.047 C 
ATOM     12  C   UNL     1     -11.641  15.138  69.320  0.00  0.00    +0.015 A 
ATOM     13  C   UNL     1     -12.933  14.171  73.008  0.00  0.00    +0.024 C 
ENDROOT
BRANCH   9  14
ATOM     14  C   UNL     1      -9.953  17.060  66.676  0.00  0.00    +0.284 C 
ATOM     15  O   UNL     1      -9.108  16.803  65.801  0.00  0.00    -0.267 OA
ATOM     16  N   UNL     1     -10.328  18.399  66.898  0.00  0.00    -0.084 NA
ENDBRANCH   9  14
BRANCH   1  18
ATOM     17  C   UNL     1     -12.442  15.638  74.222  0.00  0.00    +0.107 C 
ATOM     18  N   UNL     1     -13.143  16.325  73.831  0.00  0.00    -0.218 NA
ENDBRANCH   1  18
TORSDOF 2
ENDMDL
MODEL 3
REMARK VINA RESULT:      -6.5      2.364      3.028
REMARK  Name = 
REMARK  2 active torsions:
REMARK  status: ('A' for Active; 'I' for Inactive)
REMARK    1  A    between atoms: N_2  and  C_3
REMARK    2  A    between atoms: C_11  and  C_12
REMARK                            x       y       z     vdW  Elec       q    Type
REMARK                         _______ _______ _______ _____ _____    ______ ____
ROOT
ATOM      1  C   UNL     1      -9.524  17.471  66.883  0.00  0.00    +0.078 C 
ATOM      2  C   UNL     1     -10.861  17.338  67.831  0.00  0.00    +0.045 C 
ATOM      3  C   UNL     1     -10.730  15.995  68.478  0.00  0.00    -0.006 A 
ATOM      4  C   UNL     1     -10.215  14.899  67.806  0.00  0.00    +0.055 A 
ATOM      5  N   UNL     1     -10.677  13.764  68.362  0.00  0.00    -0.250 NA
ATOM      6  C   UNL     1     -11.464  14.101  69.384  0.00  0.00    +0.081 A 
ATOM      7  C   UNL     1     -12.210  13.348  70.276  0.00  0.00    +0.019 A 
ATOM      8  C   UNL     1     -12.679  13.889  71.456  0.00  0.00    +0.006 A 
ATOM      9  C   UNL     1     -12.352  15.211  71.735  0.00  0.00    +0.057 A 
ATOM     10  C   UNL     1     -11.809  16.023  70.759  0.00  0.00    +0.006 A 
ATOM     11  C   UNL     1      -9.503  15.035  66.506  0.00  0.00    +0.047 C 
ATOM     12  C   UNL     1     -11.327  15.462  69.588  0.00  0.00    +0.015 A 
ATOM     13  C   UNL     1     -10.053  16.298  65.861  0.00  0.00    +0.024 C 
ENDROOT
BRANCH   9  14
ATOM     14  C   UNL     1     -13.168  15.860  72.749  0.00  0.00    +0.284 C 
ATOM     15  O   UNL     1     -14.367  16.055  72.489  0.00  0.00    -0.267 OA
ATOM     16  N   UNL     1     -12.696  16.110  74.052  0.00  0.00    -0.084 NA
ENDBRANCH   9  14
BRANCH   1  18
ATOM     17  C   UNL     1     -10.271  19.394  66.703  0.00  0.00    +0.107 C 
ATOM     18  N   UNL     1     -10.181  18.605  66.006  0.00  0.00    -0.218 NA
ENDBRANCH   1  18
TORSDOF 2
ENDMDL
MODEL 4
REMARK VINA RESULT:      -6.4      2.313      5.811
REMARK  Name = 
REMARK  2 active torsions:
REMARK  status: ('A' for Active; 'I' for Inactive)
REMARK    1  A    between atoms: N_2  and  C_3
REMARK    2  A    between atoms: C_11  and  C_12
REMARK                            x       y       z     vdW  Elec       q    Type
REMARK                         _______ _______ _______ _____ _____    ______ ____
ROOT
ATOM      1  C   UNL     1     -14.077  14.994  71.704  0.00  0.00    +0.078 C 
ATOM      2  C   UNL     1     -12.796  15.536  70.827  0.00  0.00    +0.045 C 
ATOM      3  C   UNL     1     -12.403  14.369  69.977  0.00  0.00    -0.006 A 
ATOM      4  C   UNL     1     -12.453  13.066  70.443  0.00  0.00    +0.055 A 
ATOM      5  N   UNL     1     -11.591  12.299  69.748  0.00  0.00    -0.250 NA
ATOM      6  C   UNL     1     -11.000  13.073  68.837  0.00  0.00    +0.081 A 
ATOM      7  C   UNL     1     -10.026  12.817  67.886  0.00  0.00    +0.019 A 
ATOM      8  C   UNL     1      -9.807  13.680  66.831  0.00  0.00    +0.006 A 
ATOM      9  C   UNL     1     -10.619  14.804  66.739  0.00  0.00    +0.057 A 
ATOM     10  C   UNL     1     -11.429  15.178  67.793  0.00  0.00    +0.006 A 
ATOM     11  C   UNL     1     -13.156  12.707  71.704  0.00  0.00    +0.047 C 
ATOM     12  C   UNL     1     -11.651  14.293  68.835  0.00  0.00    +0.015 A 
ATOM     13  C   UNL     1     -13.132  13.961  72.564  0.00  0.00    +0.024 C 
ENDROOT
BRANCH   9  14
ATOM     14  C   UNL     1     -10.121  15.870  65.885  0.00  0.00    +0.284 C 
ATOM     15  O   UNL     1      -8.952  16.254  66.059  0.00  0.00    -0.267 OA
ATOM     16  N   UNL     1     -10.844  16.351  64.776  0.00  0.00    -0.084 NA
ENDBRANCH   9  14
BRANCH   1  18
ATOM     17  C   UNL     1     -12.957  15.904  73.190  0.00  0.00    +0.107 C 
ATOM     18  N   UNL     1     -13.903  16.133  72.780  0.00  0.00    -0.218 NA
ENDBRANCH   1  18
TORSDOF 2
ENDMDL
MODEL 5
REMARK VINA RESULT:      -6.3      1.850      2.315
REMARK  Name = 
REMARK  2 active torsions:
REMARK  status: ('A' for Active; 'I' for Inactive)
REMARK    1  A    between atoms: N_2  and  C_3
REMARK    2  A    between atoms: C_11  and  C_12
REMARK                            x       y       z     vdW  Elec       q    Type
REMARK                         _______ _______ _______ _____ _____    ______ ____
ROOT
ATOM      1  C   UNL     1      -9.804  10.714  67.077  0.00  0.00    +0.078 C 
ATOM      2  C   UNL     1     -11.067  11.666  67.525  0.00  0.00    +0.045 C 
ATOM      3  C   UNL     1     -11.238  11.399  68.987  0.00  0.00    -0.006 A 
ATOM      4  C   UNL     1     -11.060  10.140  69.534  0.00  0.00    +0.055 A 
ATOM      5  N   UNL     1     -11.756  10.037  70.682  0.00  0.00    -0.250 NA
ATOM      6  C   UNL     1     -12.365  11.204  70.895  0.00  0.00    +0.081 A 
ATOM      7  C   UNL     1     -13.217  11.643  71.894  0.00  0.00    +0.019 A 
ATOM      8  C   UNL     1     -13.458  12.987  72.095  0.00  0.00    +0.006 A 
ATOM      9  C   UNL     1     -12.792  13.891  71.275  0.00  0.00    +0.057 A 
ATOM     10  C   UNL     1     -12.125  13.459  70.145  0.00  0.00    +0.006 A 
ATOM     11  C   UNL     1     -10.422   9.033  68.770  0.00  0.00    +0.047 C 
ATOM     12  C   UNL     1     -11.877  12.108  69.969  0.00  0.00    +0.015 A 
ATOM     13  C   UNL     1     -10.676   9.340  67.303  0.00  0.00    +0.024 C 
ENDROOT
BRANCH   9  14
ATOM     14  C   UNL     1     -13.350  15.233  71.234  0.00  0.00    +0.284 C 
ATOM     15  O   UNL     1     -12.732  16.098  70.591  0.00  0.00    -0.267 OA
ATOM     16  N   UNL     1     -14.629  15.535  71.740  0.00  0.00    -0.084 NA
ENDBRANCH   9  14
BRANCH   1  18
ATOM     17  C   UNL     1      -9.785   9.894  65.174  0.00  0.00    +0.107 C 
ATOM     18  N   UNL     1     -10.209  10.784  65.555  0.00  0.00    -0.218 NA
ENDBRANCH   1  18
TORSDOF 2
ENDMDL
MODEL 6
REMARK VINA RESULT:      -6.2      2.921      6.396
REMARK  Name = 
REMARK  2 active torsions:
REMARK  status: ('A' for Active; 'I' for Inactive)
REMARK    1  A    between atoms: N_2  and  C_3
REMARK    2  A    between atoms: C_11  and  C_12
REMARK                            x       y       z     vdW  Elec       q    Type
REMARK                         _______ _______ _______ _____ _____    ______ ____
ROOT
ATOM      1  C   UNL     1     -12.734  14.105  72.060  0.00  0.00    +0.078 C 
ATOM      2  C   UNL     1     -13.118  14.080  70.461  0.00  0.00    +0.045 C 
ATOM      3  C   UNL     1     -12.004  14.824  69.796  0.00  0.00    -0.006 A 
ATOM      4  C   UNL     1     -11.409  15.933  70.373  0.00  0.00    +0.055 A 
ATOM      5  N   UNL     1     -10.858  16.705  69.417  0.00  0.00    -0.250 NA
ATOM      6  C   UNL     1     -11.071  16.113  68.242  0.00  0.00    +0.081 A 
ATOM      7  C   UNL     1     -10.750  16.474  66.944  0.00  0.00    +0.019 A 
ATOM      8  C   UNL     1     -10.769  15.552  65.916  0.00  0.00    +0.006 A 
ATOM      9  C   UNL     1     -11.096  14.239  66.234  0.00  0.00    +0.057 A 
ATOM     10  C   UNL     1     -11.630  13.924  67.468  0.00  0.00    +0.006 A 
ATOM     11  C   UNL     1     -11.635  16.296  71.799  0.00  0.00    +0.047 C 
ATOM     12  C   UNL     1     -11.586  14.854  68.493  0.00  0.00    +0.015 A 
ATOM     13  C   UNL     1     -12.996  15.724  72.162  0.00  0.00    +0.024 C 
ENDROOT
BRANCH   9  14
ATOM     14  C   UNL     1     -11.494  13.402  65.114  0.00  0.00    +0.284 C 
ATOM     15  O   UNL     1     -10.623  13.091  64.284  0.00  0.00    -0.267 OA
ATOM     16  N   UNL     1     -12.765  12.799  65.035  0.00  0.00    -0.084 NA
ENDBRANCH   9  14
BRANCH   1  18
ATOM     17  C   UNL     1     -14.767  14.464  71.892  0.00  0.00    +0.107 C 
ATOM     18  N   UNL     1     -14.218  13.785  72.486  0.00  0.00    -0.218 NA
ENDBRANCH   1  18
TORSDOF 2
ENDMDL
MODEL 7
REMARK VINA RESULT:      -6.1      4.105      5.237
REMARK  Name = 
REMARK  2 active torsions:
REMARK  status: ('A' for Active; 'I' for Inactive)
REMARK    1  A    between atoms: N_2  and  C_3
REMARK    2  A    between atoms: C_11  and  C_12
REMARK                            x       y       z     vdW  Elec       q    Type
REMARK                         _______ _______ _______ _____ _____    ______ ____
ROOT
ATOM      1  C   UNL     1     -11.098  13.040  64.259  0.00  0.00    +0.078 C 
ATOM      2  C   UNL     1     -11.532  14.567  64.687  0.00  0.00    +0.045 C 
ATOM      3  C   UNL     1     -10.821  14.811  65.980  0.00  0.00    -0.006 A 
ATOM      4  C   UNL     1     -10.659  13.819  66.932  0.00  0.00    +0.055 A 
ATOM      5  N   UNL     1     -10.496  14.374  68.148  0.00  0.00    -0.250 NA
ATOM      6  C   UNL     1     -10.533  15.698  68.000  0.00  0.00    +0.081 A 
ATOM      7  C   UNL     1     -10.446  16.741  68.906  0.00  0.00    +0.019 A 
ATOM      8  C   UNL     1     -10.173  18.031  68.495  0.00  0.00    +0.006 A 
ATOM      9  C   UNL     1      -9.959  18.243  67.138  0.00  0.00    +0.057 A 
ATOM     10  C   UNL     1     -10.265  17.262  66.214  0.00  0.00    +0.006 A 
ATOM     11  C   UNL     1     -10.925  12.386  66.629  0.00  0.00    +0.047 C 
ATOM     12  C   UNL     1     -10.519  15.970  66.644  0.00  0.00    +0.015 A 
ATOM     13  C   UNL     1     -11.946  12.382  65.503  0.00  0.00    +0.024 C 
ENDROOT
BRANCH   9  14
ATOM     14  C   UNL     1     -10.074  19.622  66.691  0.00  0.00    +0.284 C 
ATOM     15  O   UNL     1     -10.658  19.835  65.616  0.00  0.00    -0.267 OA
ATOM     16  N   UNL     1      -9.708  20.712  67.504  0.00  0.00    -0.084 NA
ENDBRANCH   9  14
BRANCH   1  18
ATOM     17  C   UNL     1     -12.586  11.882  63.400  0.00  0.00    +0.107 C 
ATOM     18  N   UNL     1     -12.324  12.899  63.278  0.00  0.00    -0.218 NA
ENDBRANCH   1  18
TORSDOF 2
ENDMDL
MODEL 8
REMARK VINA RESULT:      -6.1      1.965      3.154
REMARK  Name = 
REMARK  2 active torsions:
REMARK  status: ('A' for Active; 'I' for Inactive)
REMARK    1  A    between atoms: N_2  and  C_3
REMARK    2  A    between atoms: C_11  and  C_12
REMARK                            x       y       z     vdW  Elec       q    Type
REMARK                         _______ _______ _______ _____ _____    ______ ____
ROOT
ATOM      1  C   UNL     1     -11.783  13.040  65.553  0.00  0.00    +0.078 C 
ATOM      2  C   UNL     1     -11.580  12.868  67.176  0.00  0.00    +0.045 C 
ATOM      3  C   UNL     1     -11.648  14.263  67.713  0.00  0.00    -0.006 A 
ATOM      4  C   UNL     1     -11.109  15.342  67.033  0.00  0.00    +0.055 A 
ATOM      5  N   UNL     1     -10.820  16.330  67.901  0.00  0.00    -0.250 NA
ATOM      6  C   UNL     1     -11.172  15.919  69.119  0.00  0.00    +0.081 A 
ATOM      7  C   UNL     1     -11.078  16.511  70.367  0.00  0.00    +0.019 A 
ATOM      8  C   UNL     1     -11.809  16.045  71.442  0.00  0.00    +0.006 A 
ATOM      9  C   UNL     1     -12.669  14.975  71.221  0.00  0.00    +0.057 A 
ATOM     10  C   UNL     1     -12.600  14.246  70.050  0.00  0.00    +0.006 A 
ATOM     11  C   UNL     1     -10.680  15.243  65.611  0.00  0.00    +0.047 C 
ATOM     12  C   UNL     1     -11.876  14.737  68.976  0.00  0.00    +0.015 A 
ATOM     13  C   UNL     1     -10.327  13.782  65.385  0.00  0.00    +0.024 C 
ENDROOT
BRANCH   9  14
ATOM     14  C   UNL     1     -13.107  14.264  72.411  0.00  0.00    +0.284 C 
ATOM     15  O   UNL     1     -12.665  14.646  73.508  0.00  0.00    -0.267 OA
ATOM     16  N   UNL     1     -14.127  13.294  72.380  0.00  0.00    -0.084 NA
ENDBRANCH   9  14
BRANCH   1  18
ATOM     17  C   UNL     1     -11.183  11.586  64.205  0.00  0.00    +0.107 C 
ATOM     18  N   UNL     1     -11.156  11.624  65.260  0.00  0.00    -0.218 NA
ENDBRANCH   1  18
TORSDOF 2
ENDMDL
MODEL 9
REMARK VINA RESULT:      -6.1      4.516      6.955
REMARK  Name = 
REMARK  2 active torsions:
REMARK  status: ('A' for Active; 'I' for Inactive)
REMARK    1  A    between atoms: N_2  and  C_3
REMARK    2  A    between atoms: C_11  and  C_12
REMARK                            x       y       z     vdW  Elec       q    Type
REMARK                         _______ _______ _______ _____ _____    ______ ____
ROOT
ATOM      1  C   UNL     1      -8.530  19.679  66.691  0.00  0.00    +0.078 C 
ATOM      2  C   UNL     1      -8.533  18.089  66.271  0.00  0.00    +0.045 C 
ATOM      3  C   UNL     1      -9.781  17.540  66.887  0.00  0.00    -0.006 A 
ATOM      4  C   UNL     1     -10.236  17.955  68.127  0.00  0.00    +0.055 A 
ATOM      5  N   UNL     1     -11.005  16.995  68.676  0.00  0.00    -0.250 NA
ATOM      6  C   UNL     1     -11.068  15.980  67.814  0.00  0.00    +0.081 A 
ATOM      7  C   UNL     1     -11.690  14.744  67.872  0.00  0.00    +0.019 A 
ATOM      8  C   UNL     1     -11.902  13.992  66.734  0.00  0.00    +0.006 A 
ATOM      9  C   UNL     1     -11.495  14.532  65.519  0.00  0.00    +0.057 A 
ATOM     10  C   UNL     1     -10.682  15.648  65.480  0.00  0.00    +0.006 A 
ATOM     11  C   UNL     1      -9.685  19.160  68.806  0.00  0.00    +0.047 C 
ATOM     12  C   UNL     1     -10.494  16.400  66.628  0.00  0.00    +0.015 A 
ATOM     13  C   UNL     1      -8.271  19.325  68.275  0.00  0.00    +0.024 C 
ENDROOT
BRANCH   9  14
ATOM     14  C   UNL     1     -11.362  13.586  64.423  0.00  0.00    +0.284 C 
ATOM     15  O   UNL     1     -10.301  12.944  64.339  0.00  0.00    -0.267 OA
ATOM     16  N   UNL     1     -12.437  13.251  63.578  0.00  0.00    -0.084 NA
ENDBRANCH   9  14
BRANCH   1  18
ATOM     17  C   UNL     1      -6.728  20.651  67.005  0.00  0.00    +0.107 C 
ATOM     18  N   UNL     1      -6.984  19.814  66.413  0.00  0.00    -0.218 NA
ENDBRANCH   1  18
TORSDOF 2
ENDMDL
