MODEL 1
REMARK VINA RESULT:      -6.3      0.000      0.000
REMARK  Name = 
REMARK  12 active torsions:
REMARK  status: ('A' for Active; 'I' for Inactive)
REMARK    1  A    between atoms: C_13  and  C_15
REMARK    2  A    between atoms: C_15  and  C_16
REMARK    3  A    between atoms: C_16  and  C_17
REMARK    4  A    between atoms: C_17  and  C_18
REMARK    5  A    between atoms: C_18  and  C_20
REMARK    6  A    between atoms: C_20  and  C_21
REMARK    7  A    between atoms: C_21  and  C_22
REMARK    8  A    between atoms: C_22  and  C_23
REMARK    9  A    between atoms: C_23  and  C_25
REMARK   10  A    between atoms: C_25  and  C_26
REMARK   11  A    between atoms: C_26  and  C_27
REMARK   12  A    between atoms: C_27  and  C_28
REMARK                            x       y       z     vdW  Elec       q    Type
REMARK                         _______ _______ _______ _____ _____    ______ ____
ROOT
ATOM      1  C   UNL     1      -9.706  10.651  68.936  0.00  0.00    +0.040 C 
ENDROOT
BRANCH   1  11
ATOM      2  C   UNL     1     -10.780  16.243  65.184  0.00  0.00    +0.034 C 
ATOM      3  C   UNL     1     -10.569  15.044  65.158  0.00  0.00    +0.016 A 
ATOM      4  C   UNL     1     -11.496  14.228  64.517  0.00  0.00    +0.187 A 
ATOM      5  O   UNL     1     -12.758  14.727  64.176  0.00  0.00    -0.287 OA
ATOM      6  C   UNL     1     -11.311  12.852  64.422  0.00  0.00    +0.016 A 
ATOM      7  C   UNL     1     -12.197  12.000  63.572  0.00  0.00    +0.034 C 
ATOM      8  C   UNL     1     -10.435  12.229  65.299  0.00  0.00    +0.011 A 
ATOM      9  C   UNL     1     -10.201  10.766  65.198  0.00  0.00    +0.033 C 
ATOM     10  C   UNL     1      -9.521  10.243  66.457  0.00  0.00    +0.045 C 
ATOM     11  C   UNL     1      -9.907  11.183  67.564  0.00  0.00    +0.133 C 
ATOM     12  O   UNL     1      -9.242  12.420  67.313  0.00  0.00    -0.483 OA
ATOM     13  C   UNL     1     -11.398  11.473  67.433  0.00  0.00    +0.044 C 
ATOM     14  C   UNL     1      -9.614  13.015  66.100  0.00  0.00    +0.130 A 
ATOM     15  C   UNL     1      -9.577  14.384  65.877  0.00  0.00    +0.011 A 
ATOM     16  C   UNL     1      -8.849  15.238  66.864  0.00  0.00    +0.034 C 
ENDBRANCH   1  11
BRANCH   1  17
ATOM     17  C   UNL     1     -11.040  10.519  69.600  0.00  0.00    +0.004 C 
BRANCH  17  18
ATOM     18  C   UNL     1     -10.997   9.759  70.919  0.00  0.00    +0.000 C 
BRANCH  18  19
ATOM     19  C   UNL     1     -12.514   9.131  70.999  0.00  0.00    +0.000 C 
ATOM     20  C   UNL     1     -13.102  10.429  71.820  0.00  0.00    +0.000 C 
BRANCH  19  21
ATOM     21  C   UNL     1     -12.193   8.337  72.399  0.00  0.00    +0.000 C 
BRANCH  21  22
ATOM     22  C   UNL     1     -10.701   8.218  72.412  0.00  0.00    +0.000 C 
BRANCH  22  23
ATOM     23  C   UNL     1     -10.352   6.874  72.972  0.00  0.00    +0.000 C 
BRANCH  23  24
ATOM     24  C   UNL     1     -11.267   5.779  72.155  0.00  0.00    +0.000 C 
ATOM     25  C   UNL     1     -11.227   4.708  73.402  0.00  0.00    +0.000 C 
BRANCH  24  26
ATOM     26  C   UNL     1      -9.996   5.061  71.406  0.00  0.00    +0.000 C 
BRANCH  26  27
ATOM     27  C   UNL     1     -10.142   5.108  69.964  0.00  0.00    +0.000 C 
BRANCH  27  28
ATOM     28  C   UNL     1     -11.161   6.015  69.375  0.00  0.00    +0.000 C 
BRANCH  28  29
ATOM     29  C   UNL     1     -10.531   7.050  68.489  0.00  0.00    +0.000 C 
ATOM     30  C   UNL     1      -9.032   7.054  68.535  0.00  0.00    +0.000 C 
ATOM     31  C   UNL     1     -11.000   6.816  67.073  0.00  0.00    +0.000 C 
ENDBRANCH  28  29
ENDBRANCH  27  28
ENDBRANCH  26  27
ENDBRANCH  24  26
ENDBRANCH  23  24
ENDBRANCH  22  23
ENDBRANCH  21  22
ENDBRANCH  19  21
ENDBRANCH  18  19
ENDBRANCH  17  18
ENDBRANCH   1  17
TORSDOF 12
ENDMDL
MODEL 2
REMARK VINA RESULT:      -6.2      2.185      5.223
REMARK  Name = 
REMARK  12 active torsions:
REMARK  status: ('A' for Active; 'I' for Inactive)
REMARK    1  A    between atoms: C_13  and  C_15
REMARK    2  A    between atoms: C_15  and  C_16
REMARK    3  A    between atoms: C_16  and  C_17
REMARK    4  A    between atoms: C_17  and  C_18
REMARK    5  A    between atoms: C_18  and  C_20
REMARK    6  A    between atoms: C_20  and  C_21
REMARK    7  A    between atoms: C_21  and  C_22
REMARK    8  A    between atoms: C_22  and  C_23
REMARK    9  A    between atoms: C_23  and  C_25
REMARK   10  A    between atoms: C_25  and  C_26
REMARK   11  A    between atoms: C_26  and  C_27
REMARK   12  A    between atoms: C_27  and  C_28
REMARK                            x       y       z     vdW  Elec       q    Type
REMARK                         _______ _______ _______ _____ _____    ______ ____
ROOT
ATOM      1  C   UNL     1      -9.595  10.685  69.023  0.00  0.00    +0.040 C 
ENDROOT
BRANCH   1  11
ATOM      2  C   UNL     1     -10.646  16.155  65.088  0.00  0.00    +0.034 C 
ATOM      3  C   UNL     1     -10.507  14.945  65.107  0.00  0.00    +0.016 A 
ATOM      4  C   UNL     1     -11.528  14.159  64.582  0.00  0.00    +0.187 A 
ATOM      5  O   UNL     1     -12.782  14.717  64.316  0.00  0.00    -0.287 OA
ATOM      6  C   UNL     1     -11.431  12.771  64.543  0.00  0.00    +0.016 A 
ATOM      7  C   UNL     1     -12.430  11.937  63.809  0.00  0.00    +0.034 C 
ATOM      8  C   UNL     1     -10.524  12.136  65.379  0.00  0.00    +0.011 A 
ATOM      9  C   UNL     1     -10.382  10.659  65.334  0.00  0.00    +0.033 C 
ATOM     10  C   UNL     1      -9.635  10.153  66.561  0.00  0.00    +0.045 C 
ATOM     11  C   UNL     1      -9.876  11.165  67.646  0.00  0.00    +0.133 C 
ATOM     12  O   UNL     1      -9.163  12.346  67.282  0.00  0.00    -0.483 OA
ATOM     13  C   UNL     1     -11.353  11.540  67.617  0.00  0.00    +0.044 C 
ATOM     14  C   UNL     1      -9.597  12.907  66.073  0.00  0.00    +0.130 A 
ATOM     15  C   UNL     1      -9.500  14.259  65.779  0.00  0.00    +0.011 A 
ATOM     16  C   UNL     1      -8.647  15.111  66.662  0.00  0.00    +0.034 C 
ENDBRANCH   1  11
BRANCH   1  17
ATOM     17  C   UNL     1     -10.870  10.188  69.628  0.00  0.00    +0.004 C 
BRANCH  17  18
ATOM     18  C   UNL     1     -10.670   9.098  70.673  0.00  0.00    +0.000 C 
BRANCH  18  19
ATOM     19  C   UNL     1     -11.796   9.500  71.802  0.00  0.00    +0.000 C 
ATOM     20  C   UNL     1     -12.903   8.444  71.200  0.00  0.00    +0.000 C 
BRANCH  19  21
ATOM     21  C   UNL     1     -12.395  10.719  70.880  0.00  0.00    +0.000 C 
BRANCH  21  22
ATOM     22  C   UNL     1     -13.163  11.561  71.849  0.00  0.00    +0.000 C 
BRANCH  22  23
ATOM     23  C   UNL     1     -12.972  12.996  71.466  0.00  0.00    +0.000 C 
BRANCH  23  24
ATOM     24  C   UNL     1     -13.736  13.888  72.616  0.00  0.00    +0.000 C 
ATOM     25  C   UNL     1     -14.587  14.738  71.493  0.00  0.00    +0.000 C 
BRANCH  24  26
ATOM     26  C   UNL     1     -12.569  15.038  72.702  0.00  0.00    +0.000 C 
BRANCH  26  27
ATOM     27  C   UNL     1     -11.675  14.964  71.562  0.00  0.00    +0.000 C 
BRANCH  27  28
ATOM     28  C   UNL     1     -11.382  16.203  70.798  0.00  0.00    +0.000 C 
BRANCH  28  29
ATOM     29  C   UNL     1     -10.908  15.893  69.407  0.00  0.00    +0.000 C 
ATOM     30  C   UNL     1     -11.903  15.129  68.585  0.00  0.00    +0.000 C 
ATOM     31  C   UNL     1     -10.564  17.192  68.719  0.00  0.00    +0.000 C 
ENDBRANCH  28  29
ENDBRANCH  27  28
ENDBRANCH  26  27
ENDBRANCH  24  26
ENDBRANCH  23  24
ENDBRANCH  22  23
ENDBRANCH  21  22
ENDBRANCH  19  21
ENDBRANCH  18  19
ENDBRANCH  17  18
ENDBRANCH   1  17
TORSDOF 12
ENDMDL
MODEL 3
REMARK VINA RESULT:      -6.1      2.685      6.212
REMARK  Name = 
REMARK  12 active torsions:
REMARK  status: ('A' for Active; 'I' for Inactive)
REMARK    1  A    between atoms: C_13  and  C_15
REMARK    2  A    between atoms: C_15  and  C_16
REMARK    3  A    between atoms: C_16  and  C_17
REMARK    4  A    between atoms: C_17  and  C_18
REMARK    5  A    between atoms: C_18  and  C_20
REMARK    6  A    between atoms: C_20  and  C_21
REMARK    7  A    between atoms: C_21  and  C_22
REMARK    8  A    between atoms: C_22  and  C_23
REMARK    9  A    between atoms: C_23  and  C_25
REMARK   10  A    between atoms: C_25  and  C_26
REMARK   11  A    between atoms: C_26  and  C_27
REMARK   12  A    between atoms: C_27  and  C_28
REMARK                            x       y       z     vdW  Elec       q    Type
REMARK                         _______ _______ _______ _____ _____    ______ ____
ROOT
ATOM      1  C   UNL     1     -11.292  15.149  65.461  0.00  0.00    +0.040 C 
ENDROOT
BRANCH   1  11
ATOM      2  C   UNL     1      -7.498  20.485  67.368  0.00  0.00    +0.034 C 
ATOM      3  C   UNL     1      -7.998  19.432  67.722  0.00  0.00    +0.016 A 
ATOM      4  C   UNL     1      -7.157  18.441  68.216  0.00  0.00    +0.187 A 
ATOM      5  O   UNL     1      -5.773  18.536  68.038  0.00  0.00    -0.287 OA
ATOM      6  C   UNL     1      -7.655  17.222  68.666  0.00  0.00    +0.016 A 
ATOM      7  C   UNL     1      -6.786  16.234  69.374  0.00  0.00    +0.034 C 
ATOM      8  C   UNL     1      -8.919  16.819  68.258  0.00  0.00    +0.011 A 
ATOM      9  C   UNL     1      -9.483  15.537  68.748  0.00  0.00    +0.033 C 
ATOM     10  C   UNL     1     -10.680  15.119  67.904  0.00  0.00    +0.045 C 
ATOM     11  C   UNL     1     -10.479  15.744  66.553  0.00  0.00    +0.133 C 
ATOM     12  O   UNL     1     -10.655  17.150  66.712  0.00  0.00    -0.483 OA
ATOM     13  C   UNL     1      -9.021  15.545  66.156  0.00  0.00    +0.044 C 
ATOM     14  C   UNL     1      -9.731  17.731  67.591  0.00  0.00    +0.130 A 
ATOM     15  C   UNL     1      -9.319  19.053  67.504  0.00  0.00    +0.011 A 
ATOM     16  C   UNL     1     -10.095  19.974  66.621  0.00  0.00    +0.034 C 
ENDBRANCH   1  11
BRANCH   1  17
ATOM     17  C   UNL     1     -12.162  14.078  66.039  0.00  0.00    +0.004 C 
BRANCH  17  18
ATOM     18  C   UNL     1     -12.257  12.829  65.172  0.00  0.00    +0.000 C 
BRANCH  18  19
ATOM     19  C   UNL     1     -10.683  12.574  64.770  0.00  0.00    +0.000 C 
ATOM     20  C   UNL     1     -11.069  11.494  63.592  0.00  0.00    +0.000 C 
BRANCH  19  21
ATOM     21  C   UNL     1     -10.517  11.372  65.876  0.00  0.00    +0.000 C 
BRANCH  21  22
ATOM     22  C   UNL     1      -9.405  11.845  66.759  0.00  0.00    +0.000 C 
BRANCH  22  23
ATOM     23  C   UNL     1      -9.762  11.505  68.172  0.00  0.00    +0.000 C 
BRANCH  23  24
ATOM     24  C   UNL     1     -11.288  10.893  68.130  0.00  0.00    +0.000 C 
ATOM     25  C   UNL     1     -11.781  11.846  69.376  0.00  0.00    +0.000 C 
BRANCH  24  26
ATOM     26  C   UNL     1     -10.963   9.634  69.132  0.00  0.00    +0.000 C 
BRANCH  26  27
ATOM     27  C   UNL     1     -11.035  10.040  70.523  0.00  0.00    +0.000 C 
BRANCH  27  28
ATOM     28  C   UNL     1     -10.869   9.010  71.581  0.00  0.00    +0.000 C 
BRANCH  28  29
ATOM     29  C   UNL     1     -12.193   8.573  72.136  0.00  0.00    +0.000 C 
ATOM     30  C   UNL     1     -13.285   9.587  71.968  0.00  0.00    +0.000 C 
ATOM     31  C   UNL     1     -12.588   7.278  71.467  0.00  0.00    +0.000 C 
ENDBRANCH  28  29
ENDBRANCH  27  28
ENDBRANCH  26  27
ENDBRANCH  24  26
ENDBRANCH  23  24
ENDBRANCH  22  23
ENDBRANCH  21  22
ENDBRANCH  19  21
ENDBRANCH  18  19
ENDBRANCH  17  18
ENDBRANCH   1  17
TORSDOF 12
ENDMDL
MODEL 4
REMARK VINA RESULT:      -6.0      1.765      3.711
REMARK  Name = 
REMARK  12 active torsions:
REMARK  status: ('A' for Active; 'I' for Inactive)
REMARK    1  A    between atoms: C_13  and  C_15
REMARK    2  A    between atoms: C_15  and  C_16
REMARK    3  A    between atoms: C_16  and  C_17
REMARK    4  A    between atoms: C_17  and  C_18
REMARK    5  A    between atoms: C_18  and  C_20
REMARK    6  A    between atoms: C_20  and  C_21
REMARK    7  A    between atoms: C_21  and  C_22
REMARK    8  A    between atoms: C_22  and  C_23
REMARK    9  A    between atoms: C_23  and  C_25
REMARK   10  A    between atoms: C_25  and  C_26
REMARK   11  A    between atoms: C_26  and  C_27
REMARK   12  A    between atoms: C_27  and  C_28
REMARK                            x       y       z     vdW  Elec       q    Type
REMARK                         _______ _______ _______ _____ _____    ______ ____
ROOT
ATOM      1  C   UNL     1     -11.156   9.939  69.132  0.00  0.00    +0.040 C 
ENDROOT
BRANCH   1  11
ATOM      2  C   UNL     1     -11.096  15.122  64.701  0.00  0.00    +0.034 C 
ATOM      3  C   UNL     1     -11.341  14.784  65.845  0.00  0.00    +0.016 A 
ATOM      4  C   UNL     1     -10.677  15.436  66.879  0.00  0.00    +0.187 A 
ATOM      5  O   UNL     1      -9.562  16.237  66.607  0.00  0.00    -0.287 OA
ATOM      6  C   UNL     1     -10.923  15.125  68.213  0.00  0.00    +0.016 A 
ATOM      7  C   UNL     1     -10.362  15.949  69.326  0.00  0.00    +0.034 C 
ATOM      8  C   UNL     1     -11.512  13.907  68.522  0.00  0.00    +0.011 A 
ATOM      9  C   UNL     1     -11.810  13.565  69.935  0.00  0.00    +0.033 C 
ATOM     10  C   UNL     1     -12.093  12.076  70.080  0.00  0.00    +0.045 C 
ATOM     11  C   UNL     1     -11.362  11.399  68.956  0.00  0.00    +0.133 C 
ATOM     12  O   UNL     1     -12.034  11.753  67.748  0.00  0.00    -0.483 OA
ATOM     13  C   UNL     1      -9.972  12.018  68.860  0.00  0.00    +0.044 C 
ATOM     14  C   UNL     1     -12.028  13.130  67.491  0.00  0.00    +0.130 A 
ATOM     15  C   UNL     1     -12.089  13.670  66.214  0.00  0.00    +0.011 A 
ATOM     16  C   UNL     1     -12.458  12.765  65.084  0.00  0.00    +0.034 C 
ENDBRANCH   1  11
BRANCH   1  17
ATOM     17  C   UNL     1     -10.007   9.726  70.066  0.00  0.00    +0.004 C 
BRANCH  17  18
ATOM     18  C   UNL     1     -10.399   9.069  71.383  0.00  0.00    +0.000 C 
BRANCH  18  19
ATOM     19  C   UNL     1     -11.637   8.091  70.920  0.00  0.00    +0.000 C 
ATOM     20  C   UNL     1     -12.586   8.548  72.183  0.00  0.00    +0.000 C 
BRANCH  19  21
ATOM     21  C   UNL     1     -11.047   6.816  71.769  0.00  0.00    +0.000 C 
BRANCH  21  22
ATOM     22  C   UNL     1     -10.627   5.842  70.713  0.00  0.00    +0.000 C 
BRANCH  22  23
ATOM     23  C   UNL     1     -11.326   6.212  69.442  0.00  0.00    +0.000 C 
BRANCH  23  24
ATOM     24  C   UNL     1     -10.427   5.582  68.218  0.00  0.00    +0.000 C 
ATOM     25  C   UNL     1      -9.116   6.492  68.617  0.00  0.00    +0.000 C 
BRANCH  24  26
ATOM     26  C   UNL     1     -10.928   6.671  67.098  0.00  0.00    +0.000 C 
BRANCH  26  27
ATOM     27  C   UNL     1      -9.835   7.525  66.673  0.00  0.00    +0.000 C 
BRANCH  27  28
ATOM     28  C   UNL     1     -10.144   8.892  66.177  0.00  0.00    +0.000 C 
BRANCH  28  29
ATOM     29  C   UNL     1      -8.895   9.636  65.802  0.00  0.00    +0.000 C 
ATOM     30  C   UNL     1      -9.130  11.075  65.452  0.00  0.00    +0.000 C 
ATOM     31  C   UNL     1      -7.919   9.540  66.950  0.00  0.00    +0.000 C 
ENDBRANCH  28  29
ENDBRANCH  27  28
ENDBRANCH  26  27
ENDBRANCH  24  26
ENDBRANCH  23  24
ENDBRANCH  22  23
ENDBRANCH  21  22
ENDBRANCH  19  21
ENDBRANCH  18  19
ENDBRANCH  17  18
ENDBRANCH   1  17
TORSDOF 12
ENDMDL
MODEL 5
REMARK VINA RESULT:      -6.0      3.236      6.878
REMARK  Name = 
REMARK  12 active torsions:
REMARK  status: ('A' for Active; 'I' for Inactive)
REMARK    1  A    between atoms: C_13  and  C_15
REMARK    2  A    between atoms: C_15  and  C_16
REMARK    3  A    between atoms: C_16  and  C_17
REMARK    4  A    between atoms: C_17  and  C_18
REMARK    5  A    between atoms: C_18  and  C_20
REMARK    6  A    between atoms: C_20  and  C_21
REMARK    7  A    between atoms: C_21  and  C_22
REMARK    8  A    between atoms: C_22  and  C_23
REMARK    9  A    between atoms: C_23  and  C_25
REMARK   10  A    between atoms: C_25  and  C_26
REMARK   11  A    between atoms: C_26  and  C_27
REMARK   12  A    between atoms: C_27  and  C_28
REMARK                            x       y       z     vdW  Elec       q    Type
REMARK                         _______ _______ _______ _____ _____    ______ ____
ROOT
ATOM      1  C   UNL     1     -10.798  15.158  65.859  0.00  0.00    +0.040 C 
ENDROOT
BRANCH   1  11
ATOM      2  C   UNL     1      -7.258  20.746  67.514  0.00  0.00    +0.034 C 
ATOM      3  C   UNL     1      -7.666  19.666  67.902  0.00  0.00    +0.016 A 
ATOM      4  C   UNL     1      -6.735  18.736  68.351  0.00  0.00    +0.187 A 
ATOM      5  O   UNL     1      -5.373  18.920  68.092  0.00  0.00    -0.287 OA
ATOM      6  C   UNL     1      -7.125  17.491  68.836  0.00  0.00    +0.016 A 
ATOM      7  C   UNL     1      -6.154  16.568  69.497  0.00  0.00    +0.034 C 
ATOM      8  C   UNL     1      -8.382  17.004  68.505  0.00  0.00    +0.011 A 
ATOM      9  C   UNL     1      -8.831  15.692  69.033  0.00  0.00    +0.033 C 
ATOM     10  C   UNL     1     -10.045  15.189  68.263  0.00  0.00    +0.045 C 
ATOM     11  C   UNL     1      -9.964  15.814  66.899  0.00  0.00    +0.133 C 
ATOM     12  O   UNL     1     -10.222  17.207  67.061  0.00  0.00    -0.483 OA
ATOM     13  C   UNL     1      -8.521  15.706  66.419  0.00  0.00    +0.044 C 
ATOM     14  C   UNL     1      -9.288  17.854  67.881  0.00  0.00    +0.130 A 
ATOM     15  C   UNL     1      -8.970  19.199  67.764  0.00  0.00    +0.011 A 
ATOM     16  C   UNL     1      -9.854  20.061  66.922  0.00  0.00    +0.034 C 
ENDBRANCH   1  11
BRANCH   1  17
ATOM     17  C   UNL     1     -11.910  14.417  66.533  0.00  0.00    +0.004 C 
BRANCH  17  18
ATOM     18  C   UNL     1     -12.332  13.148  65.805  0.00  0.00    +0.000 C 
BRANCH  18  19
ATOM     19  C   UNL     1     -11.092  12.934  64.747  0.00  0.00    +0.000 C 
ATOM     20  C   UNL     1     -12.103  12.575  63.500  0.00  0.00    +0.000 C 
BRANCH  19  21
ATOM     21  C   UNL     1     -10.937  11.346  65.134  0.00  0.00    +0.000 C 
BRANCH  21  22
ATOM     22  C   UNL     1      -9.903  11.337  66.216  0.00  0.00    +0.000 C 
BRANCH  22  23
ATOM     23  C   UNL     1     -10.400  10.458  67.321  0.00  0.00    +0.000 C 
BRANCH  23  24
ATOM     24  C   UNL     1     -10.319  11.354  68.697  0.00  0.00    +0.000 C 
ATOM     25  C   UNL     1      -9.446  10.201  69.481  0.00  0.00    +0.000 C 
BRANCH  24  26
ATOM     26  C   UNL     1     -11.734  10.797  69.313  0.00  0.00    +0.000 C 
BRANCH  26  27
ATOM     27  C   UNL     1     -12.288  11.728  70.277  0.00  0.00    +0.000 C 
BRANCH  27  28
ATOM     28  C   UNL     1     -12.020  13.180  70.109  0.00  0.00    +0.000 C 
BRANCH  28  29
ATOM     29  C   UNL     1     -12.482  13.966  71.302  0.00  0.00    +0.000 C 
ATOM     30  C   UNL     1     -13.124  15.275  70.952  0.00  0.00    +0.000 C 
ATOM     31  C   UNL     1     -13.448  13.115  72.090  0.00  0.00    +0.000 C 
ENDBRANCH  28  29
ENDBRANCH  27  28
ENDBRANCH  26  27
ENDBRANCH  24  26
ENDBRANCH  23  24
ENDBRANCH  22  23
ENDBRANCH  21  22
ENDBRANCH  19  21
ENDBRANCH  18  19
ENDBRANCH  17  18
ENDBRANCH   1  17
TORSDOF 12
ENDMDL
MODEL 6
REMARK VINA RESULT:      -5.9      2.678      8.184
REMARK  Name = 
REMARK  12 active torsions:
REMARK  status: ('A' for Active; 'I' for Inactive)
REMARK    1  A    between atoms: C_13  and  C_15
REMARK    2  A    between atoms: C_15  and  C_16
REMARK    3  A    between atoms: C_16  and  C_17
REMARK    4  A    between atoms: C_17  and  C_18
REMARK    5  A    between atoms: C_18  and  C_20
REMARK    6  A    between atoms: C_20  and  C_21
REMARK    7  A    between atoms: C_21  and  C_22
REMARK    8  A    between atoms: C_22  and  C_23
REMARK    9  A    between atoms: C_23  and  C_25
REMARK   10  A    between atoms: C_25  and  C_26
REMARK   11  A    between atoms: C_26  and  C_27
REMARK   12  A    between atoms: C_27  and  C_28
REMARK                            x       y       z     vdW  Elec       q    Type
REMARK                         _______ _______ _______ _____ _____    ______ ____
ROOT
ATOM      1  C   UNL     1      -9.184  10.512  66.770  0.00  0.00    +0.040 C 
ENDROOT
BRANCH   1  11
ATOM      2  C   UNL     1      -9.745   6.974  72.573  0.00  0.00    +0.034 C 
ATOM      3  C   UNL     1     -10.063   7.992  71.984  0.00  0.00    +0.016 A 
ATOM      4  C   UNL     1     -11.418   8.255  71.814  0.00  0.00    +0.187 A 
ATOM      5  O   UNL     1     -12.365   7.253  72.046  0.00  0.00    -0.287 OA
ATOM      6  C   UNL     1     -11.860   9.410  71.177  0.00  0.00    +0.016 A 
ATOM      7  C   UNL     1     -13.305   9.792  71.163  0.00  0.00    +0.034 C 
ATOM      8  C   UNL     1     -10.984  10.103  70.354  0.00  0.00    +0.011 A 
ATOM      9  C   UNL     1     -11.424  11.353  69.686  0.00  0.00    +0.033 C 
ATOM     10  C   UNL     1     -10.465  11.730  68.564  0.00  0.00    +0.045 C 
ATOM     11  C   UNL     1      -9.832  10.448  68.105  0.00  0.00    +0.133 C 
ATOM     12  O   UNL     1      -8.968  10.010  69.153  0.00  0.00    -0.483 OA
ATOM     13  C   UNL     1     -10.929   9.395  67.998  0.00  0.00    +0.044 C 
ATOM     14  C   UNL     1      -9.639   9.746  70.354  0.00  0.00    +0.130 A 
ATOM     15  C   UNL     1      -9.192   8.831  71.295  0.00  0.00    +0.011 A 
ATOM     16  C   UNL     1      -7.798   8.309  71.162  0.00  0.00    +0.034 C 
ENDBRANCH   1  11
BRANCH   1  17
ATOM     17  C   UNL     1     -10.248  10.475  65.719  0.00  0.00    +0.004 C 
BRANCH  17  18
ATOM     18  C   UNL     1     -10.269  11.705  64.821  0.00  0.00    +0.000 C 
BRANCH  18  19
ATOM     19  C   UNL     1     -11.740  12.353  65.167  0.00  0.00    +0.000 C 
ATOM     20  C   UNL     1     -12.235  12.283  63.600  0.00  0.00    +0.000 C 
BRANCH  19  21
ATOM     21  C   UNL     1     -11.193  13.888  64.970  0.00  0.00    +0.000 C 
BRANCH  21  22
ATOM     22  C   UNL     1     -11.453  14.536  66.294  0.00  0.00    +0.000 C 
BRANCH  22  23
ATOM     23  C   UNL     1     -10.135  14.958  66.866  0.00  0.00    +0.000 C 
BRANCH  23  24
ATOM     24  C   UNL     1     -10.469  16.085  68.017  0.00  0.00    +0.000 C 
ATOM     25  C   UNL     1      -9.521  15.332  69.130  0.00  0.00    +0.000 C 
BRANCH  24  26
ATOM     26  C   UNL     1     -11.823  15.334  68.561  0.00  0.00    +0.000 C 
BRANCH  26  27
ATOM     27  C   UNL     1     -11.711  15.010  69.970  0.00  0.00    +0.000 C 
BRANCH  27  28
ATOM     28  C   UNL     1     -12.856  15.309  70.869  0.00  0.00    +0.000 C 
BRANCH  28  29
ATOM     29  C   UNL     1     -12.687  14.657  72.211  0.00  0.00    +0.000 C 
ATOM     30  C   UNL     1     -13.049  15.545  73.365  0.00  0.00    +0.000 C 
ATOM     31  C   UNL     1     -13.528  13.404  72.244  0.00  0.00    +0.000 C 
ENDBRANCH  28  29
ENDBRANCH  27  28
ENDBRANCH  26  27
ENDBRANCH  24  26
ENDBRANCH  23  24
ENDBRANCH  22  23
ENDBRANCH  21  22
ENDBRANCH  19  21
ENDBRANCH  18  19
ENDBRANCH  17  18
ENDBRANCH   1  17
TORSDOF 12
ENDMDL
MODEL 7
REMARK VINA RESULT:      -5.8      1.407      2.275
REMARK  Name = 
REMARK  12 active torsions:
REMARK  status: ('A' for Active; 'I' for Inactive)
REMARK    1  A    between atoms: C_13  and  C_15
REMARK    2  A    between atoms: C_15  and  C_16
REMARK    3  A    between atoms: C_16  and  C_17
REMARK    4  A    between atoms: C_17  and  C_18
REMARK    5  A    between atoms: C_18  and  C_20
REMARK    6  A    between atoms: C_20  and  C_21
REMARK    7  A    between atoms: C_21  and  C_22
REMARK    8  A    between atoms: C_22  and  C_23
REMARK    9  A    between atoms: C_23  and  C_25
REMARK   10  A    between atoms: C_25  and  C_26
REMARK   11  A    between atoms: C_26  and  C_27
REMARK   12  A    between atoms: C_27  and  C_28
REMARK                            x       y       z     vdW  Elec       q    Type
REMARK                         _______ _______ _______ _____ _____    ______ ____
ROOT
ATOM      1  C   UNL     1     -11.507  11.984  69.816  0.00  0.00    +0.040 C 
ENDROOT
BRANCH   1  11
ATOM      2  C   UNL     1      -8.123  16.699  66.236  0.00  0.00    +0.034 C 
ATOM      3  C   UNL     1      -8.844  15.719  66.174  0.00  0.00    +0.016 A 
ATOM      4  C   UNL     1     -10.059  15.840  65.508  0.00  0.00    +0.187 A 
ATOM      5  O   UNL     1     -10.562  17.104  65.183  0.00  0.00    -0.287 OA
ATOM      6  C   UNL     1     -10.925  14.759  65.372  0.00  0.00    +0.016 A 
ATOM      7  C   UNL     1     -12.134  14.830  64.496  0.00  0.00    +0.034 C 
ATOM      8  C   UNL     1     -10.790  13.676  66.229  0.00  0.00    +0.011 A 
ATOM      9  C   UNL     1     -11.683  12.500  66.084  0.00  0.00    +0.033 C 
ATOM     10  C   UNL     1     -11.620  11.621  67.326  0.00  0.00    +0.045 C 
ATOM     11  C   UNL     1     -11.232  12.525  68.461  0.00  0.00    +0.133 C 
ATOM     12  O   UNL     1      -9.873  12.903  68.248  0.00  0.00    -0.483 OA
ATOM     13  C   UNL     1     -12.048  13.807  68.339  0.00  0.00    +0.044 C 
ATOM     14  C   UNL     1      -9.672  13.608  67.054  0.00  0.00    +0.130 A 
ATOM     15  C   UNL     1      -8.652  14.531  66.872  0.00  0.00    +0.011 A 
ATOM     16  C   UNL     1      -7.554  14.573  67.885  0.00  0.00    +0.034 C 
ENDBRANCH   1  11
BRANCH   1  17
ATOM     17  C   UNL     1     -11.704  10.504  69.711  0.00  0.00    +0.004 C 
BRANCH  17  18
ATOM     18  C   UNL     1     -11.113   9.721  70.875  0.00  0.00    +0.000 C 
BRANCH  18  19
ATOM     19  C   UNL     1     -12.303   8.631  71.190  0.00  0.00    +0.000 C 
ATOM     20  C   UNL     1     -13.163   9.701  72.096  0.00  0.00    +0.000 C 
BRANCH  19  21
ATOM     21  C   UNL     1     -11.531   8.060  72.522  0.00  0.00    +0.000 C 
BRANCH  21  22
ATOM     22  C   UNL     1     -10.542   7.080  71.973  0.00  0.00    +0.000 C 
BRANCH  22  23
ATOM     23  C   UNL     1     -11.305   5.994  71.281  0.00  0.00    +0.000 C 
BRANCH  23  24
ATOM     24  C   UNL     1     -10.284   5.347  70.167  0.00  0.00    +0.000 C 
ATOM     25  C   UNL     1      -9.208   6.580  70.333  0.00  0.00    +0.000 C 
BRANCH  24  26
ATOM     26  C   UNL     1     -11.008   6.062  68.879  0.00  0.00    +0.000 C 
BRANCH  26  27
ATOM     27  C   UNL     1     -10.085   6.932  68.175  0.00  0.00    +0.000 C 
BRANCH  27  28
ATOM     28  C   UNL     1     -10.611   7.823  67.109  0.00  0.00    +0.000 C 
BRANCH  28  29
ATOM     29  C   UNL     1      -9.584   8.829  66.677  0.00  0.00    +0.000 C 
ATOM     30  C   UNL     1      -8.722   9.333  67.796  0.00  0.00    +0.000 C 
ATOM     31  C   UNL     1      -8.721   8.203  65.608  0.00  0.00    +0.000 C 
ENDBRANCH  28  29
ENDBRANCH  27  28
ENDBRANCH  26  27
ENDBRANCH  24  26
ENDBRANCH  23  24
ENDBRANCH  22  23
ENDBRANCH  21  22
ENDBRANCH  19  21
ENDBRANCH  18  19
ENDBRANCH  17  18
ENDBRANCH   1  17
TORSDOF 12
ENDMDL
MODEL 8
REMARK VINA RESULT:      -5.8      2.538      4.388
REMARK  Name = 
REMARK  12 active torsions:
REMARK  status: ('A' for Active; 'I' for Inactive)
REMARK    1  A    between atoms: C_13  and  C_15
REMARK    2  A    between atoms: C_15  and  C_16
REMARK    3  A    between atoms: C_16  and  C_17
REMARK    4  A    between atoms: C_17  and  C_18
REMARK    5  A    between atoms: C_18  and  C_20
REMARK    6  A    between atoms: C_20  and  C_21
REMARK    7  A    between atoms: C_21  and  C_22
REMARK    8  A    between atoms: C_22  and  C_23
REMARK    9  A    between atoms: C_23  and  C_25
REMARK   10  A    between atoms: C_25  and  C_26
REMARK   11  A    between atoms: C_26  and  C_27
REMARK   12  A    between atoms: C_27  and  C_28
REMARK                            x       y       z     vdW  Elec       q    Type
REMARK                         _______ _______ _______ _____ _____    ______ ____
ROOT
ATOM      1  C   UNL     1     -11.962  15.502  69.402  0.00  0.00    +0.040 C 
ENDROOT
BRANCH   1  11
ATOM      2  C   UNL     1     -11.606  12.288  63.398  0.00  0.00    +0.034 C 
ATOM      3  C   UNL     1     -10.973  12.702  64.353  0.00  0.00    +0.016 A 
ATOM      4  C   UNL     1     -10.209  11.793  65.078  0.00  0.00    +0.187 A 
ATOM      5  O   UNL     1     -10.392  10.418  64.900  0.00  0.00    -0.287 OA
ATOM      6  C   UNL     1      -9.438  12.194  66.164  0.00  0.00    +0.016 A 
ATOM      7  C   UNL     1      -8.470  11.266  66.822  0.00  0.00    +0.034 C 
ATOM      8  C   UNL     1      -9.728  13.400  66.787  0.00  0.00    +0.011 A 
ATOM      9  C   UNL     1      -8.901  13.862  67.930  0.00  0.00    +0.033 C 
ATOM     10  C   UNL     1      -9.604  14.983  68.684  0.00  0.00    +0.045 C 
ATOM     11  C   UNL     1     -11.075  14.789  68.447  0.00  0.00    +0.133 C 
ATOM     12  O   UNL     1     -11.323  15.099  67.077  0.00  0.00    -0.483 OA
ATOM     13  C   UNL     1     -11.383  13.304  68.605  0.00  0.00    +0.044 C 
ATOM     14  C   UNL     1     -10.635  14.265  66.185  0.00  0.00    +0.130 A 
ATOM     15  C   UNL     1     -11.088  13.973  64.907  0.00  0.00    +0.011 A 
ATOM     16  C   UNL     1     -12.205  14.797  64.352  0.00  0.00    +0.034 C 
ENDBRANCH   1  11
BRANCH   1  17
ATOM     17  C   UNL     1     -11.180  15.822  70.636  0.00  0.00    +0.004 C 
BRANCH  17  18
ATOM     18  C   UNL     1     -11.723  15.162  71.897  0.00  0.00    +0.000 C 
BRANCH  18  19
ATOM     19  C   UNL     1     -13.286  14.865  71.479  0.00  0.00    +0.000 C 
ATOM     20  C   UNL     1     -13.880  15.757  72.727  0.00  0.00    +0.000 C 
BRANCH  19  21
ATOM     21  C   UNL     1     -13.343  13.492  72.376  0.00  0.00    +0.000 C 
BRANCH  21  22
ATOM     22  C   UNL     1     -13.000  12.409  71.402  0.00  0.00    +0.000 C 
BRANCH  22  23
ATOM     23  C   UNL     1     -13.388  11.099  72.014  0.00  0.00    +0.000 C 
BRANCH  23  24
ATOM     24  C   UNL     1     -13.092   9.950  70.875  0.00  0.00    +0.000 C 
ATOM     25  C   UNL     1     -12.573   8.868  72.000  0.00  0.00    +0.000 C 
BRANCH  24  26
ATOM     26  C   UNL     1     -11.563  10.456  70.558  0.00  0.00    +0.000 C 
BRANCH  26  27
ATOM     27  C   UNL     1     -10.622   9.355  70.632  0.00  0.00    +0.000 C 
BRANCH  27  28
ATOM     28  C   UNL     1      -9.224   9.574  70.178  0.00  0.00    +0.000 C 
BRANCH  28  29
ATOM     29  C   UNL     1      -8.234   8.977  71.136  0.00  0.00    +0.000 C 
ATOM     30  C   UNL     1      -8.811   7.907  72.014  0.00  0.00    +0.000 C 
ATOM     31  C   UNL     1      -7.077   8.420  70.343  0.00  0.00    +0.000 C 
ENDBRANCH  28  29
ENDBRANCH  27  28
ENDBRANCH  26  27
ENDBRANCH  24  26
ENDBRANCH  23  24
ENDBRANCH  22  23
ENDBRANCH  21  22
ENDBRANCH  19  21
ENDBRANCH  18  19
ENDBRANCH  17  18
ENDBRANCH   1  17
TORSDOF 12
ENDMDL
MODEL 9
REMARK VINA RESULT:      -5.7      0.831      1.270
REMARK  Name = 
REMARK  12 active torsions:
REMARK  status: ('A' for Active; 'I' for Inactive)
REMARK    1  A    between atoms: C_13  and  C_15
REMARK    2  A    between atoms: C_15  and  C_16
REMARK    3  A    between atoms: C_16  and  C_17
REMARK    4  A    between atoms: C_17  and  C_18
REMARK    5  A    between atoms: C_18  and  C_20
REMARK    6  A    between atoms: C_20  and  C_21
REMARK    7  A    between atoms: C_21  and  C_22
REMARK    8  A    between atoms: C_22  and  C_23
REMARK    9  A    between atoms: C_23  and  C_25
REMARK   10  A    between atoms: C_25  and  C_26
REMARK   11  A    between atoms: C_26  and  C_27
REMARK   12  A    between atoms: C_27  and  C_28
REMARK                            x       y       z     vdW  Elec       q    Type
REMARK                         _______ _______ _______ _____ _____    ______ ____
ROOT
ATOM      1  C   UNL     1      -9.957  10.385  68.761  0.00  0.00    +0.040 C 
ENDROOT
BRANCH   1  11
ATOM      2  C   UNL     1     -10.742  16.177  65.248  0.00  0.00    +0.034 C 
ATOM      3  C   UNL     1     -10.580  14.972  65.172  0.00  0.00    +0.016 A 
ATOM      4  C   UNL     1     -11.528  14.225  64.482  0.00  0.00    +0.187 A 
ATOM      5  O   UNL     1     -12.763  14.790  64.145  0.00  0.00    -0.287 OA
ATOM      6  C   UNL     1     -11.398  12.848  64.328  0.00  0.00    +0.016 A 
ATOM      7  C   UNL     1     -12.304  12.072  63.428  0.00  0.00    +0.034 C 
ATOM      8  C   UNL     1     -10.562  12.151  65.188  0.00  0.00    +0.011 A 
ATOM      9  C   UNL     1     -10.386  10.686  65.026  0.00  0.00    +0.033 C 
ATOM     10  C   UNL     1      -9.749  10.079  66.269  0.00  0.00    +0.045 C 
ATOM     11  C   UNL     1     -10.115  10.985  67.411  0.00  0.00    +0.133 C 
ATOM     12  O   UNL     1      -9.396  12.203  67.226  0.00  0.00    -0.483 OA
ATOM     13  C   UNL     1     -11.590  11.342  67.272  0.00  0.00    +0.044 C 
ATOM     14  C   UNL     1      -9.723  12.866  66.036  0.00  0.00    +0.130 A 
ATOM     15  C   UNL     1      -9.627  14.241  65.875  0.00  0.00    +0.011 A 
ATOM     16  C   UNL     1      -8.881  15.019  66.909  0.00  0.00    +0.034 C 
ENDBRANCH   1  11
BRANCH   1  17
ATOM     17  C   UNL     1     -11.128  10.784  69.603  0.00  0.00    +0.004 C 
BRANCH  17  18
ATOM     18  C   UNL     1     -11.282   9.956  70.872  0.00  0.00    +0.000 C 
BRANCH  18  19
ATOM     19  C   UNL     1     -12.909   9.725  70.931  0.00  0.00    +0.000 C 
ATOM     20  C   UNL     1     -13.161  11.106  71.788  0.00  0.00    +0.000 C 
BRANCH  19  21
ATOM     21  C   UNL     1     -12.809   8.837  72.308  0.00  0.00    +0.000 C 
BRANCH  21  22
ATOM     22  C   UNL     1     -11.619   7.957  72.084  0.00  0.00    +0.000 C 
BRANCH  22  23
ATOM     23  C   UNL     1     -12.098   6.540  72.036  0.00  0.00    +0.000 C 
BRANCH  23  24
ATOM     24  C   UNL     1     -11.021   5.718  71.105  0.00  0.00    +0.000 C 
ATOM     25  C   UNL     1      -9.820   6.797  71.417  0.00  0.00    +0.000 C 
BRANCH  24  26
ATOM     26  C   UNL     1     -11.432   6.475  69.709  0.00  0.00    +0.000 C 
BRANCH  26  27
ATOM     27  C   UNL     1     -10.768   5.872  68.569  0.00  0.00    +0.000 C 
BRANCH  27  28
ATOM     28  C   UNL     1     -10.259   6.752  67.486  0.00  0.00    +0.000 C 
BRANCH  28  29
ATOM     29  C   UNL     1      -8.796   6.524  67.233  0.00  0.00    +0.000 C 
ATOM     30  C   UNL     1      -7.896   7.405  68.046  0.00  0.00    +0.000 C 
ATOM     31  C   UNL     1      -8.484   5.074  67.513  0.00  0.00    +0.000 C 
ENDBRANCH  28  29
ENDBRANCH  27  28
ENDBRANCH  26  27
ENDBRANCH  24  26
ENDBRANCH  23  24
ENDBRANCH  22  23
ENDBRANCH  21  22
ENDBRANCH  19  21
ENDBRANCH  18  19
ENDBRANCH  17  18
ENDBRANCH   1  17
TORSDOF 12
ENDMDL
