MODEL 1
REMARK VINA RESULT:      -6.4      0.000      0.000
REMARK  Name = 
REMARK  2 active torsions:
REMARK  status: ('A' for Active; 'I' for Inactive)
REMARK    1  A    between atoms: N_6  and  C_7
REMARK    2  A    between atoms: C_10  and  C_11
REMARK                            x       y       z     vdW  Elec       q    Type
REMARK                         _______ _______ _______ _____ _____    ______ ____
ROOT
ATOM      1  N   UNL     1     -12.983  12.395  64.161  0.00  0.00    -0.105 NA
ATOM      2  C   UNL     1     -12.220  13.240  64.326  0.00  0.00    +0.203 A 
ATOM      3  C   UNL     1     -11.126  13.007  65.155  0.00  0.00    +0.192 A 
ATOM      4  F   UNL     1     -10.744  11.724  65.421  0.00  0.00    -0.200 F 
ATOM      5  C   UNL     1     -10.471  14.062  65.780  0.00  0.00    +0.115 A 
ATOM      6  N   UNL     1     -10.612  15.258  65.157  0.00  0.00    -0.253 N 
ATOM      7  C   UNL     1     -11.665  15.548  64.462  0.00  0.00    +0.353 A 
ATOM      8  O   UNL     1     -11.646  16.677  63.891  0.00  0.00    -0.244 OA
ATOM      9  N   UNL     1     -12.408  14.533  63.965  0.00  0.00    -0.172 NA
ENDROOT
BRANCH   6  10
ATOM     10  C   UNL     1      -9.926  16.349  66.072  0.00  0.00    +0.220 C 
ATOM     11  O   UNL     1     -10.746  15.900  67.281  0.00  0.00    -0.323 OA
ATOM     12  C   UNL     1     -10.250  17.024  68.100  0.00  0.00    +0.198 C 
ATOM     13  S   UNL     1      -8.512  16.203  68.204  0.00  0.00    -0.105 S 
ATOM     14  C   UNL     1      -8.663  15.398  66.571  0.00  0.00    +0.114 C 
BRANCH  12  15
ATOM     15  C   UNL     1     -10.749  16.409  69.496  0.00  0.00    +0.223 C 
ATOM     16  O   UNL     1     -12.127  16.192  69.337  0.00  0.00    -0.217 OA
ENDBRANCH  12  15
ENDBRANCH   6  10
TORSDOF 2
ENDMDL
MODEL 2
REMARK VINA RESULT:      -5.8      3.477      5.089
REMARK  Name = 
REMARK  2 active torsions:
REMARK  status: ('A' for Active; 'I' for Inactive)
REMARK    1  A    between atoms: N_6  and  C_7
REMARK    2  A    between atoms: C_10  and  C_11
REMARK                            x       y       z     vdW  Elec       q    Type
REMARK                         _______ _______ _______ _____ _____    ______ ____
ROOT
ATOM      1  N   UNL     1     -11.478  16.610  63.987  0.00  0.00    -0.105 NA
ATOM      2  C   UNL     1     -11.527  15.591  64.517  0.00  0.00    +0.203 A 
ATOM      3  C   UNL     1     -10.447  15.184  65.296  0.00  0.00    +0.192 A 
ATOM      4  F   UNL     1      -9.560  16.114  65.756  0.00  0.00    -0.200 F 
ATOM      5  C   UNL     1     -10.217  13.834  65.542  0.00  0.00    +0.115 A 
ATOM      6  N   UNL     1     -11.317  13.049  65.438  0.00  0.00    -0.253 N 
ATOM      7  C   UNL     1     -12.296  13.344  64.644  0.00  0.00    +0.353 A 
ATOM      8  O   UNL     1     -13.283  12.553  64.683  0.00  0.00    -0.244 OA
ATOM      9  N   UNL     1     -12.454  14.633  64.268  0.00  0.00    -0.172 NA
ENDROOT
BRANCH   6  10
ATOM     10  C   UNL     1     -10.843  11.551  65.611  0.00  0.00    +0.220 C 
ATOM     11  O   UNL     1     -10.127  11.586  64.262  0.00  0.00    -0.323 OA
ATOM     12  C   UNL     1      -9.830  10.141  64.323  0.00  0.00    +0.198 C 
ATOM     13  S   UNL     1      -8.532  10.450  65.711  0.00  0.00    -0.105 S 
ATOM     14  C   UNL     1      -9.418  11.901  66.382  0.00  0.00    +0.114 C 
BRANCH  12  15
ATOM     15  C   UNL     1      -8.743  10.172  63.143  0.00  0.00    +0.223 C 
ATOM     16  O   UNL     1      -9.043  11.319  62.390  0.00  0.00    -0.217 OA
ENDBRANCH  12  15
ENDBRANCH   6  10
TORSDOF 2
ENDMDL
MODEL 3
REMARK VINA RESULT:      -5.8      2.326      3.049
REMARK  Name = 
REMARK  2 active torsions:
REMARK  status: ('A' for Active; 'I' for Inactive)
REMARK    1  A    between atoms: N_6  and  C_7
REMARK    2  A    between atoms: C_10  and  C_11
REMARK                            x       y       z     vdW  Elec       q    Type
REMARK                         _______ _______ _______ _____ _____    ______ ____
ROOT
ATOM      1  N   UNL     1     -12.433  12.896  63.442  0.00  0.00    -0.105 NA
ATOM      2  C   UNL     1     -12.343  13.107  64.569  0.00  0.00    +0.203 A 
ATOM      3  C   UNL     1     -12.099  14.411  64.992  0.00  0.00    +0.192 A 
ATOM      4  F   UNL     1     -12.374  15.453  64.155  0.00  0.00    -0.200 F 
ATOM      5  C   UNL     1     -11.504  14.658  66.225  0.00  0.00    +0.115 A 
ATOM      6  N   UNL     1     -11.661  13.663  67.133  0.00  0.00    -0.253 N 
ATOM      7  C   UNL     1     -11.786  12.425  66.778  0.00  0.00    +0.353 A 
ATOM      8  O   UNL     1     -11.977  11.605  67.723  0.00  0.00    -0.244 OA
ATOM      9  N   UNL     1     -12.223  12.155  65.527  0.00  0.00    -0.172 NA
ENDROOT
BRANCH   6  10
ATOM     10  C   UNL     1     -10.811  14.053  68.408  0.00  0.00    +0.220 C 
ATOM     11  O   UNL     1     -10.646  15.486  67.902  0.00  0.00    -0.323 OA
ATOM     12  C   UNL     1      -9.705  15.817  68.991  0.00  0.00    +0.198 C 
ATOM     13  S   UNL     1     -11.146  15.784  70.268  0.00  0.00    -0.105 S 
ATOM     14  C   UNL     1     -12.097  14.527  69.342  0.00  0.00    +0.114 C 
BRANCH  12  15
ATOM     15  C   UNL     1      -9.788  17.404  68.769  0.00  0.00    +0.223 C 
ATOM     16  O   UNL     1     -11.000  17.622  68.093  0.00  0.00    -0.217 OA
ENDBRANCH  12  15
ENDBRANCH   6  10
TORSDOF 2
ENDMDL
MODEL 4
REMARK VINA RESULT:      -5.5      4.754      6.159
REMARK  Name = 
REMARK  2 active torsions:
REMARK  status: ('A' for Active; 'I' for Inactive)
REMARK    1  A    between atoms: N_6  and  C_7
REMARK    2  A    between atoms: C_10  and  C_11
REMARK                            x       y       z     vdW  Elec       q    Type
REMARK                         _______ _______ _______ _____ _____    ______ ____
ROOT
ATOM      1  N   UNL     1     -14.259  13.971  72.380  0.00  0.00    -0.105 NA
ATOM      2  C   UNL     1     -13.394  13.578  71.732  0.00  0.00    +0.203 A 
ATOM      3  C   UNL     1     -12.799  14.437  70.812  0.00  0.00    +0.192 A 
ATOM      4  F   UNL     1     -12.938  15.787  70.963  0.00  0.00    -0.200 F 
ATOM      5  C   UNL     1     -12.133  13.935  69.699  0.00  0.00    +0.115 A 
ATOM      6  N   UNL     1     -11.677  12.667  69.843  0.00  0.00    -0.253 N 
ATOM      7  C   UNL     1     -12.269  11.809  70.610  0.00  0.00    +0.353 A 
ATOM      8  O   UNL     1     -11.710  10.677  70.693  0.00  0.00    -0.244 OA
ATOM      9  N   UNL     1     -13.046  12.274  71.615  0.00  0.00    -0.172 NA
ENDROOT
BRANCH   6  10
ATOM     10  C   UNL     1     -11.080  12.221  68.448  0.00  0.00    +0.220 C 
ATOM     11  O   UNL     1     -12.137  13.031  67.698  0.00  0.00    -0.323 OA
ATOM     12  C   UNL     1     -11.707  12.484  66.396  0.00  0.00    +0.198 C 
ATOM     13  S   UNL     1     -10.088  13.523  66.476  0.00  0.00    -0.105 S 
ATOM     14  C   UNL     1     -10.008  13.478  68.302  0.00  0.00    +0.114 C 
BRANCH  12  15
ATOM     15  C   UNL     1     -12.496  13.573  65.520  0.00  0.00    +0.223 C 
ATOM     16  O   UNL     1     -13.159  12.839  64.523  0.00  0.00    -0.217 OA
ENDBRANCH  12  15
ENDBRANCH   6  10
TORSDOF 2
ENDMDL
MODEL 5
REMARK VINA RESULT:      -5.4      3.018      5.111
REMARK  Name = 
REMARK  2 active torsions:
REMARK  status: ('A' for Active; 'I' for Inactive)
REMARK    1  A    between atoms: N_6  and  C_7
REMARK    2  A    between atoms: C_10  and  C_11
REMARK                            x       y       z     vdW  Elec       q    Type
REMARK                         _______ _______ _______ _____ _____    ______ ____
ROOT
ATOM      1  N   UNL     1      -9.214  18.932  67.151  0.00  0.00    -0.105 NA
ATOM      2  C   UNL     1      -9.626  17.890  67.408  0.00  0.00    +0.203 A 
ATOM      3  C   UNL     1      -9.246  16.803  66.624  0.00  0.00    +0.192 A 
ATOM      4  F   UNL     1      -8.119  16.887  65.859  0.00  0.00    -0.200 F 
ATOM      5  C   UNL     1     -10.045  15.667  66.549  0.00  0.00    +0.115 A 
ATOM      6  N   UNL     1     -10.866  15.487  67.614  0.00  0.00    -0.253 N 
ATOM      7  C   UNL     1     -11.323  16.483  68.302  0.00  0.00    +0.353 A 
ATOM      8  O   UNL     1     -12.036  16.172  69.300  0.00  0.00    -0.244 OA
ATOM      9  N   UNL     1     -10.642  17.652  68.274  0.00  0.00    -0.172 NA
ENDROOT
BRANCH   6  10
ATOM     10  C   UNL     1     -11.784  14.241  67.293  0.00  0.00    +0.220 C 
ATOM     11  O   UNL     1     -11.565  14.422  65.792  0.00  0.00    -0.323 OA
ATOM     12  C   UNL     1     -12.558  13.378  65.468  0.00  0.00    +0.198 C 
ATOM     13  S   UNL     1     -11.355  12.014  66.100  0.00  0.00    -0.105 S 
ATOM     14  C   UNL     1     -10.574  13.109  67.338  0.00  0.00    +0.114 C 
BRANCH  12  15
ATOM     15  C   UNL     1     -12.106  13.226  63.936  0.00  0.00    +0.223 C 
ATOM     16  O   UNL     1     -12.883  12.175  63.422  0.00  0.00    -0.217 OA
ENDBRANCH  12  15
ENDBRANCH   6  10
TORSDOF 2
ENDMDL
MODEL 6
REMARK VINA RESULT:      -5.4      3.243      4.433
REMARK  Name = 
REMARK  2 active torsions:
REMARK  status: ('A' for Active; 'I' for Inactive)
REMARK    1  A    between atoms: N_6  and  C_7
REMARK    2  A    between atoms: C_10  and  C_11
REMARK                            x       y       z     vdW  Elec       q    Type
REMARK                         _______ _______ _______ _____ _____    ______ ____
ROOT
ATOM      1  N   UNL     1     -11.469  16.473  63.960  0.00  0.00    -0.105 NA
ATOM      2  C   UNL     1     -11.666  15.529  64.586  0.00  0.00    +0.203 A 
ATOM      3  C   UNL     1     -10.922  15.323  65.745  0.00  0.00    +0.192 A 
ATOM      4  F   UNL     1     -10.296  16.381  66.339  0.00  0.00    -0.200 F 
ATOM      5  C   UNL     1     -10.742  14.043  66.257  0.00  0.00    +0.115 A 
ATOM      6  N   UNL     1     -11.701  13.155  65.895  0.00  0.00    -0.253 N 
ATOM      7  C   UNL     1     -12.341  13.256  64.774  0.00  0.00    +0.353 A 
ATOM      8  O   UNL     1     -13.244  12.391  64.584  0.00  0.00    -0.244 OA
ATOM      9  N   UNL     1     -12.403  14.468  64.177  0.00  0.00    -0.172 NA
ENDROOT
BRANCH   6  10
ATOM     10  C   UNL     1     -11.262  11.739  66.446  0.00  0.00    +0.220 C 
ATOM     11  O   UNL     1      -9.841  11.936  65.921  0.00  0.00    -0.323 OA
ATOM     12  C   UNL     1      -9.465  10.551  66.267  0.00  0.00    +0.198 C 
ATOM     13  S   UNL     1      -9.489  10.996  68.141  0.00  0.00    -0.105 S 
ATOM     14  C   UNL     1     -10.787  12.269  67.944  0.00  0.00    +0.114 C 
BRANCH  12  15
ATOM     15  C   UNL     1      -7.886  10.794  66.115  0.00  0.00    +0.223 C 
ATOM     16  O   UNL     1      -7.596  11.890  66.945  0.00  0.00    -0.217 OA
ENDBRANCH  12  15
ENDBRANCH   6  10
TORSDOF 2
ENDMDL
MODEL 7
REMARK VINA RESULT:      -5.3      4.032      5.507
REMARK  Name = 
REMARK  2 active torsions:
REMARK  status: ('A' for Active; 'I' for Inactive)
REMARK    1  A    between atoms: N_6  and  C_7
REMARK    2  A    between atoms: C_10  and  C_11
REMARK                            x       y       z     vdW  Elec       q    Type
REMARK                         _______ _______ _______ _____ _____    ______ ____
ROOT
ATOM      1  N   UNL     1     -12.334  15.544  72.468  0.00  0.00    -0.105 NA
ATOM      2  C   UNL     1     -12.262  15.398  71.330  0.00  0.00    +0.203 A 
ATOM      3  C   UNL     1     -12.435  14.121  70.803  0.00  0.00    +0.192 A 
ATOM      4  F   UNL     1     -13.076  13.169  71.542  0.00  0.00    -0.200 F 
ATOM      5  C   UNL     1     -11.892  13.782  69.568  0.00  0.00    +0.115 A 
ATOM      6  N   UNL     1     -11.670  14.836  68.744  0.00  0.00    -0.253 N 
ATOM      7  C   UNL     1     -11.403  16.018  69.200  0.00  0.00    +0.353 A 
ATOM      8  O   UNL     1     -11.268  16.921  68.324  0.00  0.00    -0.244 OA
ATOM      9  N   UNL     1     -11.791  16.324  70.459  0.00  0.00    -0.172 NA
ENDROOT
BRANCH   6  10
ATOM     10  C   UNL     1     -10.932  14.282  67.461  0.00  0.00    +0.220 C 
ATOM     11  O   UNL     1     -11.067  12.845  67.961  0.00  0.00    -0.323 OA
ATOM     12  C   UNL     1     -10.225  12.329  66.863  0.00  0.00    +0.198 C 
ATOM     13  S   UNL     1     -11.637  12.668  65.599  0.00  0.00    -0.105 S 
ATOM     14  C   UNL     1     -12.295  14.093  66.536  0.00  0.00    +0.114 C 
BRANCH  12  15
ATOM     15  C   UNL     1     -10.637  10.793  67.082  0.00  0.00    +0.223 C 
ATOM     16  O   UNL     1     -11.894  10.831  67.709  0.00  0.00    -0.217 OA
ENDBRANCH  12  15
ENDBRANCH   6  10
TORSDOF 2
ENDMDL
MODEL 8
REMARK VINA RESULT:      -5.1      2.506      3.687
REMARK  Name = 
REMARK  2 active torsions:
REMARK  status: ('A' for Active; 'I' for Inactive)
REMARK    1  A    between atoms: N_6  and  C_7
REMARK    2  A    between atoms: C_10  and  C_11
REMARK                            x       y       z     vdW  Elec       q    Type
REMARK                         _______ _______ _______ _____ _____    ______ ____
ROOT
ATOM      1  N   UNL     1     -11.779  12.999  66.357  0.00  0.00    -0.105 NA
ATOM      2  C   UNL     1     -11.643  14.077  66.732  0.00  0.00    +0.203 A 
ATOM      3  C   UNL     1     -10.876  14.961  65.978  0.00  0.00    +0.192 A 
ATOM      4  F   UNL     1     -10.649  14.698  64.658  0.00  0.00    -0.200 F 
ATOM      5  C   UNL     1     -10.272  16.063  66.573  0.00  0.00    +0.115 A 
ATOM      6  N   UNL     1     -10.869  16.482  67.716  0.00  0.00    -0.253 N 
ATOM      7  C   UNL     1     -11.503  15.667  68.496  0.00  0.00    +0.353 A 
ATOM      8  O   UNL     1     -12.057  16.197  69.502  0.00  0.00    -0.244 OA
ATOM      9  N   UNL     1     -11.974  14.511  67.973  0.00  0.00    -0.172 NA
ENDROOT
BRANCH   6  10
ATOM     10  C   UNL     1      -9.976  17.640  68.316  0.00  0.00    +0.220 C 
ATOM     11  O   UNL     1      -8.860  17.346  67.314  0.00  0.00    -0.323 OA
ATOM     12  C   UNL     1      -7.945  18.297  67.975  0.00  0.00    +0.198 C 
ATOM     13  S   UNL     1      -8.982  19.779  67.314  0.00  0.00    -0.105 S 
ATOM     14  C   UNL     1     -10.551  18.842  67.329  0.00  0.00    +0.114 C 
BRANCH  12  15
ATOM     15  C   UNL     1      -6.895  18.345  66.762  0.00  0.00    +0.223 C 
ATOM     16  O   UNL     1      -7.657  18.131  65.602  0.00  0.00    -0.217 OA
ENDBRANCH  12  15
ENDBRANCH   6  10
TORSDOF 2
ENDMDL
MODEL 9
REMARK VINA RESULT:      -5.0      3.286      4.791
REMARK  Name = 
REMARK  2 active torsions:
REMARK  status: ('A' for Active; 'I' for Inactive)
REMARK    1  A    between atoms: N_6  and  C_7
REMARK    2  A    between atoms: C_10  and  C_11
REMARK                            x       y       z     vdW  Elec       q    Type
REMARK                         _______ _______ _______ _____ _____    ______ ____
ROOT
ATOM      1  N   UNL     1      -7.114  18.519  65.418  0.00  0.00    -0.105 NA
ATOM      2  C   UNL     1      -7.874  18.107  66.175  0.00  0.00    +0.203 A 
ATOM      3  C   UNL     1      -7.694  16.821  66.678  0.00  0.00    +0.192 A 
ATOM      4  F   UNL     1      -6.461  16.239  66.609  0.00  0.00    -0.200 F 
ATOM      5  C   UNL     1      -8.771  16.094  67.174  0.00  0.00    +0.115 A 
ATOM      6  N   UNL     1      -9.812  16.852  67.597  0.00  0.00    -0.253 N 
ATOM      7  C   UNL     1     -10.072  18.009  67.079  0.00  0.00    +0.353 A 
ATOM      8  O   UNL     1     -11.041  18.634  67.601  0.00  0.00    -0.244 OA
ATOM      9  N   UNL     1      -9.073  18.675  66.457  0.00  0.00    -0.172 NA
ENDROOT
BRANCH   6  10
ATOM     10  C   UNL     1     -10.983  15.865  67.990  0.00  0.00    +0.220 C 
ATOM     11  O   UNL     1     -10.889  15.160  66.638  0.00  0.00    -0.323 OA
ATOM     12  C   UNL     1     -12.094  14.353  66.917  0.00  0.00    +0.198 C 
ATOM     13  S   UNL     1     -11.118  13.315  68.213  0.00  0.00    -0.105 S 
ATOM     14  C   UNL     1     -10.016  14.701  68.668  0.00  0.00    +0.114 C 
BRANCH  12  15
ATOM     15  C   UNL     1     -11.841  13.309  65.724  0.00  0.00    +0.223 C 
ATOM     16  O   UNL     1     -13.046  13.268  65.004  0.00  0.00    -0.217 OA
ENDBRANCH  12  15
ENDBRANCH   6  10
TORSDOF 2
ENDMDL
