MODEL 1
REMARK VINA RESULT:      -7.3      0.000      0.000
REMARK  Name = 
REMARK  6 active torsions:
REMARK  status: ('A' for Active; 'I' for Inactive)
REMARK    1  A    between atoms: C_2  and  C_3
REMARK    2  A    between atoms: C_5  and  O_6
REMARK    3  A    between atoms: O_6  and  C_7
REMARK    4  A    between atoms: C_13  and  O_14
REMARK    5  A    between atoms: O_14  and  C_15
REMARK    6  A    between atoms: C_17  and  C_18
REMARK                            x       y       z     vdW  Elec       q    Type
REMARK                         _______ _______ _______ _____ _____    ______ ____
ROOT
ATOM      1  C   UNL     1      -7.444  18.009  67.888  0.00  0.00    +0.168 C 
ATOM      2  C   UNL     1      -8.434  16.895  68.711  0.00  0.00    +0.209 C 
ATOM      3  O   UNL     1      -7.394  15.827  68.592  0.00  0.00    -0.218 OA
ATOM      4  C   UNL     1      -9.151  16.428  67.238  0.00  0.00    +0.168 C 
ATOM      5  C   UNL     1     -10.494  17.484  67.406  0.00  0.00    +0.123 C 
ATOM      6  N   UNL     1     -10.219  18.114  65.994  0.00  0.00    -0.130 NA
ATOM      7  C   UNL     1      -9.867  18.623  68.294  0.00  0.00    +0.043 C 
ATOM      8  C   UNL     1      -8.483  19.351  68.125  0.00  0.00    +0.123 C 
ATOM      9  N   UNL     1      -8.579  19.633  66.576  0.00  0.00    -0.130 NA
ENDROOT
BRANCH   4  10
ATOM     10  O   UNL     1      -9.745  15.289  67.960  0.00  0.00    -0.327 OA
BRANCH  10  11
ATOM     11  C   UNL     1     -10.751  14.605  67.037  0.00  0.00    +0.268 C 
ATOM     12  C   UNL     1     -10.406  13.178  67.965  0.00  0.00    +0.228 C 
ATOM     13  O   UNL     1      -8.979  12.989  67.552  0.00  0.00    -0.216 OA
ATOM     14  C   UNL     1     -11.054  11.975  66.966  0.00  0.00    +0.160 C 
ATOM     15  N   UNL     1     -12.415  12.737  67.018  0.00  0.00    -0.127 NA
ATOM     16  C   UNL     1     -10.531  12.146  65.356  0.00  0.00    +0.202 C 
ATOM     17  O   UNL     1      -9.043  12.106  65.648  0.00  0.00    -0.219 OA
ATOM     18  C   UNL     1     -10.476  13.792  64.855  0.00  0.00    +0.182 C 
ATOM     19  O   UNL     1      -9.693  14.324  66.006  0.00  0.00    -0.326 OA
BRANCH  18  20
ATOM     20  C   UNL     1     -12.045  14.092  65.250  0.00  0.00    +0.214 C 
ATOM     21  O   UNL     1     -12.416  14.507  63.932  0.00  0.00    -0.218 OA
ENDBRANCH  18  20
ENDBRANCH  10  11
ENDBRANCH   4  10
BRANCH   1  22
ATOM     22  O   UNL     1      -6.720  18.171  69.179  0.00  0.00    -0.328 OA
BRANCH  22  29
ATOM     23  C   UNL     1      -4.631  20.919  69.958  0.00  0.00    +0.167 C 
ATOM     24  C   UNL     1      -3.369  20.112  70.858  0.00  0.00    +0.182 C 
ATOM     25  O   UNL     1      -4.288  19.641  71.973  0.00  0.00    -0.220 OA
ATOM     26  C   UNL     1      -3.244  18.776  69.988  0.00  0.00    +0.060 C 
ATOM     27  C   UNL     1      -4.420  17.728  69.810  0.00  0.00    +0.151 C 
ATOM     28  N   UNL     1      -5.211  17.900  71.157  0.00  0.00    -0.127 NA
ATOM     29  C   UNL     1      -5.389  18.860  68.897  0.00  0.00    +0.253 C 
ATOM     30  O   UNL     1      -5.617  19.800  70.067  0.00  0.00    -0.328 OA
BRANCH  23  32
ATOM     31  N   UNL     1      -4.019  20.901  68.293  0.00  0.00    -0.129 NA
ATOM     32  C   UNL     1      -3.992  20.568  68.494  0.00  0.00    +0.141 C 
ENDBRANCH  23  32
ENDBRANCH  22  29
ENDBRANCH   1  22
TORSDOF 6
ENDMDL
MODEL 2
REMARK VINA RESULT:      -7.2      0.937      1.147
REMARK  Name = 
REMARK  6 active torsions:
REMARK  status: ('A' for Active; 'I' for Inactive)
REMARK    1  A    between atoms: C_2  and  C_3
REMARK    2  A    between atoms: C_5  and  O_6
REMARK    3  A    between atoms: O_6  and  C_7
REMARK    4  A    between atoms: C_13  and  O_14
REMARK    5  A    between atoms: O_14  and  C_15
REMARK    6  A    between atoms: C_17  and  C_18
REMARK                            x       y       z     vdW  Elec       q    Type
REMARK                         _______ _______ _______ _____ _____    ______ ____
ROOT
ATOM      1  C   UNL     1      -7.374  18.252  67.853  0.00  0.00    +0.168 C 
ATOM      2  C   UNL     1      -8.359  17.073  68.586  0.00  0.00    +0.209 C 
ATOM      3  O   UNL     1      -7.333  16.013  68.346  0.00  0.00    -0.218 OA
ATOM      4  C   UNL     1      -9.109  16.753  67.091  0.00  0.00    +0.168 C 
ATOM      5  C   UNL     1     -10.438  17.799  67.384  0.00  0.00    +0.123 C 
ATOM      6  N   UNL     1     -10.184  18.558  66.033  0.00  0.00    -0.130 NA
ATOM      7  C   UNL     1      -9.783  18.844  68.363  0.00  0.00    +0.043 C 
ATOM      8  C   UNL     1      -8.396  19.574  68.236  0.00  0.00    +0.123 C 
ATOM      9  N   UNL     1      -8.518  20.002  66.724  0.00  0.00    -0.130 NA
ENDROOT
BRANCH   4  10
ATOM     10  O   UNL     1      -9.701  15.556  67.713  0.00  0.00    -0.327 OA
BRANCH  10  11
ATOM     11  C   UNL     1     -10.277  14.673  66.609  0.00  0.00    +0.268 C 
ATOM     12  C   UNL     1     -11.535  14.320  67.754  0.00  0.00    +0.228 C 
ATOM     13  O   UNL     1     -10.712  13.574  68.759  0.00  0.00    -0.216 OA
ATOM     14  C   UNL     1     -12.249  12.960  67.045  0.00  0.00    +0.160 C 
ATOM     15  N   UNL     1     -12.464  13.809  65.753  0.00  0.00    -0.127 NA
ATOM     16  C   UNL     1     -11.087  11.798  66.604  0.00  0.00    +0.202 C 
ATOM     17  O   UNL     1     -10.462  11.642  67.976  0.00  0.00    -0.219 OA
ATOM     18  C   UNL     1      -9.666  12.509  65.943  0.00  0.00    +0.182 C 
ATOM     19  O   UNL     1      -9.422  13.507  67.022  0.00  0.00    -0.326 OA
BRANCH  18  20
ATOM     20  C   UNL     1     -10.477  13.348  64.782  0.00  0.00    +0.214 C 
ATOM     21  O   UNL     1     -10.071  12.487  63.715  0.00  0.00    -0.218 OA
ENDBRANCH  18  20
ENDBRANCH  10  11
ENDBRANCH   4  10
BRANCH   1  22
ATOM     22  O   UNL     1      -6.625  18.285  69.139  0.00  0.00    -0.328 OA
BRANCH  22  29
ATOM     23  C   UNL     1      -4.436  20.948  69.940  0.00  0.00    +0.167 C 
ATOM     24  C   UNL     1      -3.228  20.096  70.873  0.00  0.00    +0.182 C 
ATOM     25  O   UNL     1      -4.190  19.675  71.972  0.00  0.00    -0.220 OA
ATOM     26  C   UNL     1      -3.143  18.748  70.016  0.00  0.00    +0.060 C 
ATOM     27  C   UNL     1      -4.359  17.750  69.822  0.00  0.00    +0.151 C 
ATOM     28  N   UNL     1      -5.171  17.967  71.150  0.00  0.00    -0.127 NA
ATOM     29  C   UNL     1      -5.260  18.915  68.880  0.00  0.00    +0.253 C 
ATOM     30  O   UNL     1      -5.471  19.874  70.036  0.00  0.00    -0.328 OA
BRANCH  23  32
ATOM     31  N   UNL     1      -3.785  20.890  68.290  0.00  0.00    -0.129 NA
ATOM     32  C   UNL     1      -3.782  20.557  68.492  0.00  0.00    +0.141 C 
ENDBRANCH  23  32
ENDBRANCH  22  29
ENDBRANCH   1  22
TORSDOF 6
ENDMDL
MODEL 3
REMARK VINA RESULT:      -7.2      2.580      8.634
REMARK  Name = 
REMARK  6 active torsions:
REMARK  status: ('A' for Active; 'I' for Inactive)
REMARK    1  A    between atoms: C_2  and  C_3
REMARK    2  A    between atoms: C_5  and  O_6
REMARK    3  A    between atoms: O_6  and  C_7
REMARK    4  A    between atoms: C_13  and  O_14
REMARK    5  A    between atoms: O_14  and  C_15
REMARK    6  A    between atoms: C_17  and  C_18
REMARK                            x       y       z     vdW  Elec       q    Type
REMARK                         _______ _______ _______ _____ _____    ______ ____
ROOT
ATOM      1  C   UNL     1      -9.076  14.436  66.702  0.00  0.00    +0.168 C 
ATOM      2  C   UNL     1      -9.440  16.040  67.142  0.00  0.00    +0.209 C 
ATOM      3  O   UNL     1      -9.260  16.505  65.733  0.00  0.00    -0.218 OA
ATOM      4  C   UNL     1      -7.799  16.327  67.496  0.00  0.00    +0.168 C 
ATOM      5  C   UNL     1      -7.970  16.010  69.174  0.00  0.00    +0.123 C 
ATOM      6  N   UNL     1      -6.808  14.954  69.130  0.00  0.00    -0.130 NA
ATOM      7  C   UNL     1      -9.189  15.013  69.166  0.00  0.00    +0.043 C 
ATOM      8  C   UNL     1      -9.431  13.765  68.239  0.00  0.00    +0.123 C 
ATOM      9  N   UNL     1      -7.995  13.126  68.364  0.00  0.00    -0.130 NA
ENDROOT
BRANCH   4  10
ATOM     10  O   UNL     1      -8.128  17.761  67.565  0.00  0.00    -0.327 OA
BRANCH  10  11
ATOM     11  C   UNL     1      -6.824  18.552  67.653  0.00  0.00    +0.268 C 
ATOM     12  C   UNL     1      -7.837  19.952  67.481  0.00  0.00    +0.228 C 
ATOM     13  O   UNL     1      -8.307  19.712  66.080  0.00  0.00    -0.216 OA
ATOM     14  C   UNL     1      -6.692  21.138  67.098  0.00  0.00    +0.160 C 
ATOM     15  N   UNL     1      -5.940  20.765  68.414  0.00  0.00    -0.127 NA
ATOM     16  C   UNL     1      -5.651  20.627  65.853  0.00  0.00    +0.202 C 
ATOM     17  O   UNL     1      -6.730  20.321  64.833  0.00  0.00    -0.219 OA
ATOM     18  C   UNL     1      -5.208  18.970  66.007  0.00  0.00    +0.182 C 
ATOM     19  O   UNL     1      -6.579  18.412  66.176  0.00  0.00    -0.326 OA
BRANCH  18  20
ATOM     20  C   UNL     1      -4.639  19.138  67.543  0.00  0.00    +0.214 C 
ATOM     21  O   UNL     1      -3.377  18.525  67.264  0.00  0.00    -0.218 OA
ENDBRANCH  18  20
ENDBRANCH  10  11
ENDBRANCH   4  10
BRANCH   1  22
ATOM     22  O   UNL     1     -10.474  14.360  66.197  0.00  0.00    -0.328 OA
BRANCH  22  29
ATOM     23  C   UNL     1     -11.193  11.370  64.446  0.00  0.00    +0.167 C 
ATOM     24  C   UNL     1     -12.591  11.871  63.525  0.00  0.00    +0.182 C 
ATOM     25  O   UNL     1     -13.455  12.149  64.744  0.00  0.00    -0.220 OA
ATOM     26  C   UNL     1     -12.131  13.353  63.140  0.00  0.00    +0.060 C 
ATOM     27  C   UNL     1     -11.853  14.494  64.206  0.00  0.00    +0.151 C 
ATOM     28  N   UNL     1     -12.821  14.087  65.374  0.00  0.00    -0.127 NA
ATOM     29  C   UNL     1     -10.456  13.659  64.843  0.00  0.00    +0.253 C 
ATOM     30  O   UNL     1     -11.254  12.504  65.419  0.00  0.00    -0.328 OA
BRANCH  23  32
ATOM     31  N   UNL     1      -9.873  11.691  63.304  0.00  0.00    -0.129 NA
ATOM     32  C   UNL     1     -10.111  11.988  63.386  0.00  0.00    +0.141 C 
ENDBRANCH  23  32
ENDBRANCH  22  29
ENDBRANCH   1  22
TORSDOF 6
ENDMDL
MODEL 4
REMARK VINA RESULT:      -7.1      2.503      3.178
REMARK  Name = 
REMARK  6 active torsions:
REMARK  status: ('A' for Active; 'I' for Inactive)
REMARK    1  A    between atoms: C_2  and  C_3
REMARK    2  A    between atoms: C_5  and  O_6
REMARK    3  A    between atoms: O_6  and  C_7
REMARK    4  A    between atoms: C_13  and  O_14
REMARK    5  A    between atoms: O_14  and  C_15
REMARK    6  A    between atoms: C_17  and  C_18
REMARK                            x       y       z     vdW  Elec       q    Type
REMARK                         _______ _______ _______ _____ _____    ______ ____
ROOT
ATOM      1  C   UNL     1      -7.902  18.632  66.427  0.00  0.00    +0.168 C 
ATOM      2  C   UNL     1      -8.026  17.190  67.323  0.00  0.00    +0.209 C 
ATOM      3  O   UNL     1      -7.614  16.377  66.138  0.00  0.00    -0.218 OA
ATOM      4  C   UNL     1      -9.672  17.057  66.902  0.00  0.00    +0.168 C 
ATOM      5  C   UNL     1     -10.235  17.798  68.344  0.00  0.00    +0.123 C 
ATOM      6  N   UNL     1     -11.074  18.841  67.522  0.00  0.00    -0.130 NA
ATOM      7  C   UNL     1      -9.010  18.720  68.703  0.00  0.00    +0.043 C 
ATOM      8  C   UNL     1      -8.187  19.672  67.760  0.00  0.00    +0.123 C 
ATOM      9  N   UNL     1      -9.407  20.366  67.042  0.00  0.00    -0.130 NA
ENDROOT
BRANCH   4  10
ATOM     10  O   UNL     1      -9.631  15.682  67.429  0.00  0.00    -0.327 OA
BRANCH  10  11
ATOM     11  C   UNL     1     -10.729  14.871  66.744  0.00  0.00    +0.268 C 
ATOM     12  C   UNL     1     -10.342  13.643  67.909  0.00  0.00    +0.228 C 
ATOM     13  O   UNL     1      -8.960  13.317  67.432  0.00  0.00    -0.216 OA
ATOM     14  C   UNL     1     -11.102  12.294  67.226  0.00  0.00    +0.160 C 
ATOM     15  N   UNL     1     -12.435  13.106  67.230  0.00  0.00    -0.127 NA
ATOM     16  C   UNL     1     -10.714  12.120  65.579  0.00  0.00    +0.202 C 
ATOM     17  O   UNL     1      -9.208  12.077  65.755  0.00  0.00    -0.219 OA
ATOM     18  C   UNL     1     -10.660  13.630  64.755  0.00  0.00    +0.182 C 
ATOM     19  O   UNL     1      -9.770  14.347  65.710  0.00  0.00    -0.326 OA
BRANCH  18  20
ATOM     20  C   UNL     1     -12.182  14.068  65.203  0.00  0.00    +0.214 C 
ATOM     21  O   UNL     1     -12.603  14.392  63.874  0.00  0.00    -0.218 OA
ENDBRANCH  18  20
ENDBRANCH  10  11
ENDBRANCH   4  10
BRANCH   1  22
ATOM     22  O   UNL     1      -6.434  18.530  66.649  0.00  0.00    -0.328 OA
BRANCH  22  29
ATOM     23  C   UNL     1      -5.693  20.747  63.993  0.00  0.00    +0.167 C 
ATOM     24  C   UNL     1      -3.987  21.008  64.265  0.00  0.00    +0.182 C 
ATOM     25  O   UNL     1      -4.171  21.648  65.631  0.00  0.00    -0.220 OA
ATOM     26  C   UNL     1      -3.561  19.525  64.684  0.00  0.00    +0.060 C 
ATOM     27  C   UNL     1      -4.120  18.778  65.966  0.00  0.00    +0.151 C 
ATOM     28  N   UNL     1      -4.414  19.979  66.936  0.00  0.00    -0.127 NA
ATOM     29  C   UNL     1      -5.735  18.693  65.304  0.00  0.00    +0.253 C 
ATOM     30  O   UNL     1      -5.968  20.192  65.354  0.00  0.00    -0.328 OA
BRANCH  23  32
ATOM     31  N   UNL     1      -5.719  19.378  62.865  0.00  0.00    -0.129 NA
ATOM     32  C   UNL     1      -5.482  19.348  63.173  0.00  0.00    +0.141 C 
ENDBRANCH  23  32
ENDBRANCH  22  29
ENDBRANCH   1  22
TORSDOF 6
ENDMDL
MODEL 5
REMARK VINA RESULT:      -7.1      2.950      8.183
REMARK  Name = 
REMARK  6 active torsions:
REMARK  status: ('A' for Active; 'I' for Inactive)
REMARK    1  A    between atoms: C_2  and  C_3
REMARK    2  A    between atoms: C_5  and  O_6
REMARK    3  A    between atoms: O_6  and  C_7
REMARK    4  A    between atoms: C_13  and  O_14
REMARK    5  A    between atoms: O_14  and  C_15
REMARK    6  A    between atoms: C_17  and  C_18
REMARK                            x       y       z     vdW  Elec       q    Type
REMARK                         _______ _______ _______ _____ _____    ______ ____
ROOT
ATOM      1  C   UNL     1     -10.356  12.307  67.366  0.00  0.00    +0.168 C 
ATOM      2  C   UNL     1      -9.012  13.128  66.721  0.00  0.00    +0.209 C 
ATOM      3  O   UNL     1      -8.537  13.499  68.089  0.00  0.00    -0.218 OA
ATOM      4  C   UNL     1      -9.930  14.558  66.600  0.00  0.00    +0.168 C 
ATOM      5  C   UNL     1     -10.349  14.306  64.955  0.00  0.00    +0.123 C 
ATOM      6  N   UNL     1     -11.877  14.463  65.283  0.00  0.00    -0.130 NA
ATOM      7  C   UNL     1     -10.292  12.735  64.871  0.00  0.00    +0.043 C 
ATOM      8  C   UNL     1     -10.893  11.675  65.866  0.00  0.00    +0.123 C 
ATOM      9  N   UNL     1     -12.321  12.322  66.029  0.00  0.00    -0.130 NA
ENDROOT
BRANCH   4  10
ATOM     10  O   UNL     1      -8.668  15.273  66.341  0.00  0.00    -0.327 OA
BRANCH  10  11
ATOM     11  C   UNL     1      -8.931  16.773  66.460  0.00  0.00    +0.268 C 
ATOM     12  C   UNL     1      -7.205  16.932  66.344  0.00  0.00    +0.228 C 
ATOM     13  O   UNL     1      -6.837  16.276  67.640  0.00  0.00    -0.216 OA
ATOM     14  C   UNL     1      -6.988  18.526  66.870  0.00  0.00    +0.160 C 
ATOM     15  N   UNL     1      -7.980  18.975  65.751  0.00  0.00    -0.127 NA
ATOM     16  C   UNL     1      -7.820  18.827  68.323  0.00  0.00    +0.202 C 
ATOM     17  O   UNL     1      -7.176  17.716  69.130  0.00  0.00    -0.219 OA
ATOM     18  C   UNL     1      -9.368  18.075  68.361  0.00  0.00    +0.182 C 
ATOM     19  O   UNL     1      -8.934  16.706  67.963  0.00  0.00    -0.326 OA
BRANCH  18  20
ATOM     20  C   UNL     1      -9.877  18.770  66.959  0.00  0.00    +0.214 C 
ATOM     21  O   UNL     1     -11.104  19.254  67.511  0.00  0.00    -0.218 OA
ENDBRANCH  18  20
ENDBRANCH  10  11
ENDBRANCH   4  10
BRANCH   1  22
ATOM     22  O   UNL     1      -9.414  11.190  67.652  0.00  0.00    -0.328 OA
BRANCH  22  29
ATOM     23  C   UNL     1     -10.775   8.555  69.582  0.00  0.00    +0.167 C 
ATOM     24  C   UNL     1      -9.313   7.854  70.236  0.00  0.00    +0.182 C 
ATOM     25  O   UNL     1      -8.744   7.460  68.883  0.00  0.00    -0.220 OA
ATOM     26  C   UNL     1      -8.492   9.195  70.528  0.00  0.00    +0.060 C 
ATOM     27  C   UNL     1      -8.044  10.216  69.401  0.00  0.00    +0.151 C 
ATOM     28  N   UNL     1      -7.887   9.272  68.154  0.00  0.00    -0.127 NA
ATOM     29  C   UNL     1      -9.695  10.676  69.060  0.00  0.00    +0.253 C 
ATOM     30  O   UNL     1     -10.088   9.322  68.498  0.00  0.00    -0.328 OA
BRANCH  23  32
ATOM     31  N   UNL     1     -11.249   9.725  70.829  0.00  0.00    -0.129 NA
ATOM     32  C   UNL     1     -10.875   9.729  70.716  0.00  0.00    +0.141 C 
ENDBRANCH  23  32
ENDBRANCH  22  29
ENDBRANCH   1  22
TORSDOF 6
ENDMDL
MODEL 6
REMARK VINA RESULT:      -7.0      1.817      8.038
REMARK  Name = 
REMARK  6 active torsions:
REMARK  status: ('A' for Active; 'I' for Inactive)
REMARK    1  A    between atoms: C_2  and  C_3
REMARK    2  A    between atoms: C_5  and  O_6
REMARK    3  A    between atoms: O_6  and  C_7
REMARK    4  A    between atoms: C_13  and  O_14
REMARK    5  A    between atoms: O_14  and  C_15
REMARK    6  A    between atoms: C_17  and  C_18
REMARK                            x       y       z     vdW  Elec       q    Type
REMARK                         _______ _______ _______ _____ _____    ______ ____
ROOT
ATOM      1  C   UNL     1      -9.456  17.003  66.953  0.00  0.00    +0.168 C 
ATOM      2  C   UNL     1      -8.008  17.669  66.355  0.00  0.00    +0.209 C 
ATOM      3  O   UNL     1      -7.223  16.496  66.849  0.00  0.00    -0.218 OA
ATOM      4  C   UNL     1      -7.774  18.504  67.821  0.00  0.00    +0.168 C 
ATOM      5  C   UNL     1      -8.478  19.963  67.254  0.00  0.00    +0.123 C 
ATOM      6  N   UNL     1      -9.467  20.001  68.473  0.00  0.00    -0.130 NA
ATOM      7  C   UNL     1      -9.473  19.410  66.166  0.00  0.00    +0.043 C 
ATOM      8  C   UNL     1     -10.475  18.203  66.274  0.00  0.00    +0.123 C 
ATOM      9  N   UNL     1     -11.093  18.565  67.679  0.00  0.00    -0.130 NA
ENDROOT
BRANCH   4  10
ATOM     10  O   UNL     1      -6.403  18.794  67.366  0.00  0.00    -0.327 OA
BRANCH  10  11
ATOM     11  C   UNL     1      -5.559  19.163  68.584  0.00  0.00    +0.268 C 
ATOM     12  C   UNL     1      -4.308  19.498  67.426  0.00  0.00    +0.228 C 
ATOM     13  O   UNL     1      -4.084  18.102  66.934  0.00  0.00    -0.216 OA
ATOM     14  C   UNL     1      -2.946  19.567  68.429  0.00  0.00    +0.160 C 
ATOM     15  N   UNL     1      -3.678  20.666  69.262  0.00  0.00    -0.127 NA
ATOM     16  C   UNL     1      -2.865  18.226  69.472  0.00  0.00    +0.202 C 
ATOM     17  O   UNL     1      -2.904  17.160  68.394  0.00  0.00    -0.219 OA
ATOM     18  C   UNL     1      -4.410  17.780  70.089  0.00  0.00    +0.182 C 
ATOM     19  O   UNL     1      -5.137  17.734  68.789  0.00  0.00    -0.326 OA
BRANCH  18  20
ATOM     20  C   UNL     1      -4.737  19.276  70.691  0.00  0.00    +0.214 C 
ATOM     21  O   UNL     1      -5.061  18.802  72.002  0.00  0.00    -0.218 OA
ENDBRANCH  18  20
ENDBRANCH  10  11
ENDBRANCH   4  10
BRANCH   1  22
ATOM     22  O   UNL     1      -9.444  16.138  65.741  0.00  0.00    -0.328 OA
BRANCH  22  29
ATOM     23  C   UNL     1     -11.244  13.825  67.725  0.00  0.00    +0.167 C 
ATOM     24  C   UNL     1     -12.055  12.904  66.481  0.00  0.00    +0.182 C 
ATOM     25  O   UNL     1     -12.853  14.083  65.949  0.00  0.00    -0.220 OA
ATOM     26  C   UNL     1     -10.876  12.830  65.403  0.00  0.00    +0.060 C 
ATOM     27  C   UNL     1     -10.249  14.102  64.695  0.00  0.00    +0.151 C 
ATOM     28  N   UNL     1     -11.463  15.099  64.689  0.00  0.00    -0.127 NA
ATOM     29  C   UNL     1      -9.557  14.685  66.191  0.00  0.00    +0.253 C 
ATOM     30  O   UNL     1     -10.897  14.979  66.840  0.00  0.00    -0.328 OA
BRANCH  23  32
ATOM     31  N   UNL     1      -9.749  12.907  67.992  0.00  0.00    -0.129 NA
ATOM     32  C   UNL     1      -9.847  12.981  67.621  0.00  0.00    +0.141 C 
ENDBRANCH  23  32
ENDBRANCH  22  29
ENDBRANCH   1  22
TORSDOF 6
ENDMDL
MODEL 7
REMARK VINA RESULT:      -6.8      3.653      5.856
REMARK  Name = 
REMARK  6 active torsions:
REMARK  status: ('A' for Active; 'I' for Inactive)
REMARK    1  A    between atoms: C_2  and  C_3
REMARK    2  A    between atoms: C_5  and  O_6
REMARK    3  A    between atoms: O_6  and  C_7
REMARK    4  A    between atoms: C_13  and  O_14
REMARK    5  A    between atoms: O_14  and  C_15
REMARK    6  A    between atoms: C_17  and  C_18
REMARK                            x       y       z     vdW  Elec       q    Type
REMARK                         _______ _______ _______ _____ _____    ______ ____
ROOT
ATOM      1  C   UNL     1     -10.593  14.633  65.612  0.00  0.00    +0.168 C 
ATOM      2  C   UNL     1     -10.368  13.113  66.344  0.00  0.00    +0.209 C 
ATOM      3  O   UNL     1      -8.901  13.360  66.492  0.00  0.00    -0.218 OA
ATOM      4  C   UNL     1     -10.143  12.397  64.815  0.00  0.00    +0.168 C 
ATOM      5  C   UNL     1     -11.776  11.892  64.665  0.00  0.00    +0.123 C 
ATOM      6  N   UNL     1     -11.906  12.607  63.273  0.00  0.00    -0.130 NA
ATOM      7  C   UNL     1     -12.504  12.972  65.549  0.00  0.00    +0.043 C 
ATOM      8  C   UNL     1     -12.303  14.533  65.558  0.00  0.00    +0.123 C 
ATOM      9  N   UNL     1     -12.332  14.759  63.998  0.00  0.00    -0.130 NA
ENDROOT
BRANCH   4  10
ATOM     10  O   UNL     1      -9.661  11.195  65.518  0.00  0.00    -0.327 OA
BRANCH  10  11
ATOM     11  C   UNL     1      -8.659  10.478  64.616  0.00  0.00    +0.268 C 
ATOM     12  C   UNL     1      -9.291   9.023  65.322  0.00  0.00    +0.228 C 
ATOM     13  O   UNL     1      -8.805   9.231  66.724  0.00  0.00    -0.216 OA
ATOM     14  C   UNL     1      -8.105   7.901  64.874  0.00  0.00    +0.160 C 
ATOM     15  N   UNL     1      -8.342   8.321  63.390  0.00  0.00    -0.127 NA
ATOM     16  C   UNL     1      -6.540   8.465  65.232  0.00  0.00    +0.202 C 
ATOM     17  O   UNL     1      -6.772   8.706  66.711  0.00  0.00    -0.219 OA
ATOM     18  C   UNL     1      -6.355  10.144  64.900  0.00  0.00    +0.182 C 
ATOM     19  O   UNL     1      -7.560  10.625  65.632  0.00  0.00    -0.326 OA
BRANCH  18  20
ATOM     20  C   UNL     1      -6.849  10.014  63.335  0.00  0.00    +0.214 C 
ATOM     21  O   UNL     1      -5.703  10.682  62.799  0.00  0.00    -0.218 OA
ENDBRANCH  18  20
ENDBRANCH  10  11
ENDBRANCH   4  10
BRANCH   1  22
ATOM     22  O   UNL     1     -10.536  15.196  66.989  0.00  0.00    -0.328 OA
BRANCH  22  29
ATOM     23  C   UNL     1      -9.554  18.469  66.068  0.00  0.00    +0.167 C 
ATOM     24  C   UNL     1      -9.571  19.256  67.628  0.00  0.00    +0.182 C 
ATOM     25  O   UNL     1     -11.059  19.050  67.859  0.00  0.00    -0.220 OA
ATOM     26  C   UNL     1      -8.964  18.075  68.520  0.00  0.00    +0.060 C 
ATOM     27  C   UNL     1      -9.664  16.666  68.711  0.00  0.00    +0.151 C 
ATOM     28  N   UNL     1     -11.183  17.037  68.555  0.00  0.00    -0.127 NA
ATOM     29  C   UNL     1      -9.421  16.236  67.034  0.00  0.00    +0.253 C 
ATOM     30  O   UNL     1     -10.370  17.291  66.496  0.00  0.00    -0.328 OA
BRANCH  23  32
ATOM     31  N   UNL     1      -7.877  17.909  65.918  0.00  0.00    -0.129 NA
ATOM     32  C   UNL     1      -8.057  17.838  66.256  0.00  0.00    +0.141 C 
ENDBRANCH  23  32
ENDBRANCH  22  29
ENDBRANCH   1  22
TORSDOF 6
ENDMDL
MODEL 8
REMARK VINA RESULT:      -6.7      2.639      8.228
REMARK  Name = 
REMARK  6 active torsions:
REMARK  status: ('A' for Active; 'I' for Inactive)
REMARK    1  A    between atoms: C_2  and  C_3
REMARK    2  A    between atoms: C_5  and  O_6
REMARK    3  A    between atoms: O_6  and  C_7
REMARK    4  A    between atoms: C_13  and  O_14
REMARK    5  A    between atoms: O_14  and  C_15
REMARK    6  A    between atoms: C_17  and  C_18
REMARK                            x       y       z     vdW  Elec       q    Type
REMARK                         _______ _______ _______ _____ _____    ______ ____
ROOT
ATOM      1  C   UNL     1      -9.504  16.851  67.281  0.00  0.00    +0.168 C 
ATOM      2  C   UNL     1      -8.990  17.966  66.102  0.00  0.00    +0.209 C 
ATOM      3  O   UNL     1      -7.906  17.041  65.648  0.00  0.00    -0.218 OA
ATOM      4  C   UNL     1      -7.953  18.702  67.235  0.00  0.00    +0.168 C 
ATOM      5  C   UNL     1      -9.074  19.930  67.660  0.00  0.00    +0.123 C 
ATOM      6  N   UNL     1      -8.949  19.567  69.183  0.00  0.00    -0.130 NA
ATOM      7  C   UNL     1     -10.438  19.203  67.361  0.00  0.00    +0.043 C 
ATOM      8  C   UNL     1     -10.885  17.748  67.758  0.00  0.00    +0.123 C 
ATOM      9  N   UNL     1     -10.419  17.787  69.264  0.00  0.00    -0.130 NA
ENDROOT
BRANCH   4  10
ATOM     10  O   UNL     1      -7.336  19.425  66.109  0.00  0.00    -0.327 OA
BRANCH  10  11
ATOM     11  C   UNL     1      -5.934  19.862  66.527  0.00  0.00    +0.268 C 
ATOM     12  C   UNL     1      -5.826  20.525  64.925  0.00  0.00    +0.228 C 
ATOM     13  O   UNL     1      -5.856  19.241  64.155  0.00  0.00    -0.216 OA
ATOM     14  C   UNL     1      -4.160  20.788  64.792  0.00  0.00    +0.160 C 
ATOM     15  N   UNL     1      -4.245  21.655  66.087  0.00  0.00    -0.127 NA
ATOM     16  C   UNL     1      -3.268  19.415  65.256  0.00  0.00    +0.202 C 
ATOM     17  O   UNL     1      -3.917  18.446  64.286  0.00  0.00    -0.219 OA
ATOM     18  C   UNL     1      -3.943  18.627  66.629  0.00  0.00    +0.182 C 
ATOM     19  O   UNL     1      -5.346  18.534  66.136  0.00  0.00    -0.326 OA
BRANCH  18  20
ATOM     20  C   UNL     1      -3.925  19.980  67.567  0.00  0.00    +0.214 C 
ATOM     21  O   UNL     1      -3.310  19.334  68.685  0.00  0.00    -0.218 OA
ENDBRANCH  18  20
ENDBRANCH  10  11
ENDBRANCH   4  10
BRANCH   1  22
ATOM     22  O   UNL     1     -10.187  16.137  66.167  0.00  0.00    -0.328 OA
BRANCH  22  29
ATOM     23  C   UNL     1     -11.828  13.244  67.377  0.00  0.00    +0.167 C 
ATOM     24  C   UNL     1     -12.110  12.390  65.878  0.00  0.00    +0.182 C 
ATOM     25  O   UNL     1     -13.009  13.463  65.287  0.00  0.00    -0.220 OA
ATOM     26  C   UNL     1     -10.731  12.710  65.134  0.00  0.00    +0.060 C 
ATOM     27  C   UNL     1     -10.260  14.173  64.745  0.00  0.00    +0.151 C 
ATOM     28  N   UNL     1     -11.632  14.909  64.534  0.00  0.00    -0.127 NA
ATOM     29  C   UNL     1     -10.072  14.637  66.420  0.00  0.00    +0.253 C 
ATOM     30  O   UNL     1     -11.555  14.566  66.735  0.00  0.00    -0.328 OA
BRANCH  23  32
ATOM     31  N   UNL     1     -10.265  12.599  67.918  0.00  0.00    -0.129 NA
ATOM     32  C   UNL     1     -10.291  12.708  67.544  0.00  0.00    +0.141 C 
ENDBRANCH  23  32
ENDBRANCH  22  29
ENDBRANCH   1  22
TORSDOF 6
ENDMDL
MODEL 9
REMARK VINA RESULT:      -6.7      2.199      8.374
REMARK  Name = 
REMARK  6 active torsions:
REMARK  status: ('A' for Active; 'I' for Inactive)
REMARK    1  A    between atoms: C_2  and  C_3
REMARK    2  A    between atoms: C_5  and  O_6
REMARK    3  A    between atoms: O_6  and  C_7
REMARK    4  A    between atoms: C_13  and  O_14
REMARK    5  A    between atoms: O_14  and  C_15
REMARK    6  A    between atoms: C_17  and  C_18
REMARK                            x       y       z     vdW  Elec       q    Type
REMARK                         _______ _______ _______ _____ _____    ______ ____
ROOT
ATOM      1  C   UNL     1      -7.926  14.859  67.715  0.00  0.00    +0.168 C 
ATOM      2  C   UNL     1      -7.598  15.758  69.124  0.00  0.00    +0.209 C 
ATOM      3  O   UNL     1      -8.263  16.968  68.550  0.00  0.00    -0.218 OA
ATOM      4  C   UNL     1      -6.089  16.225  68.488  0.00  0.00    +0.168 C 
ATOM      5  C   UNL     1      -5.219  14.980  69.287  0.00  0.00    +0.123 C 
ATOM      6  N   UNL     1      -4.590  14.500  67.930  0.00  0.00    -0.130 NA
ATOM      7  C   UNL     1      -6.336  13.879  69.426  0.00  0.00    +0.043 C 
ATOM      8  C   UNL     1      -7.354  13.369  68.340  0.00  0.00    +0.123 C 
ATOM      9  N   UNL     1      -6.329  13.191  67.155  0.00  0.00    -0.130 NA
ENDROOT
BRANCH   4  10
ATOM     10  O   UNL     1      -6.005  17.212  69.579  0.00  0.00    -0.327 OA
BRANCH  10  11
ATOM     11  C   UNL     1      -5.414  18.503  69.016  0.00  0.00    +0.268 C 
ATOM     12  C   UNL     1      -4.210  18.315  70.255  0.00  0.00    +0.228 C 
ATOM     13  O   UNL     1      -5.091  18.521  71.448  0.00  0.00    -0.216 OA
ATOM     14  C   UNL     1      -3.511  19.856  70.266  0.00  0.00    +0.160 C 
ATOM     15  N   UNL     1      -3.224  19.682  68.742  0.00  0.00    -0.127 NA
ATOM     16  C   UNL     1      -4.689  21.081  70.341  0.00  0.00    +0.202 C 
ATOM     17  O   UNL     1      -5.369  20.596  71.607  0.00  0.00    -0.219 OA
ATOM     18  C   UNL     1      -6.064  20.729  69.366  0.00  0.00    +0.182 C 
ATOM     19  O   UNL     1      -6.318  19.350  69.870  0.00  0.00    -0.326 OA
BRANCH  18  20
ATOM     20  C   UNL     1      -5.186  20.510  67.991  0.00  0.00    +0.214 C 
ATOM     21  O   UNL     1      -5.903  21.494  67.240  0.00  0.00    -0.218 OA
ENDBRANCH  18  20
ENDBRANCH  10  11
ENDBRANCH   4  10
BRANCH   1  22
ATOM     22  O   UNL     1      -9.307  14.707  68.251  0.00  0.00    -0.328 OA
BRANCH  22  29
ATOM     23  C   UNL     1     -10.323  14.063  64.923  0.00  0.00    +0.167 C 
ATOM     24  C   UNL     1     -11.833  13.230  65.208  0.00  0.00    +0.182 C 
ATOM     25  O   UNL     1     -11.197  12.063  65.945  0.00  0.00    -0.220 OA
ATOM     26  C   UNL     1     -12.379  14.098  66.435  0.00  0.00    +0.060 C 
ATOM     27  C   UNL     1     -11.643  14.203  67.835  0.00  0.00    +0.151 C 
ATOM     28  N   UNL     1     -10.911  12.815  67.920  0.00  0.00    -0.127 NA
ATOM     29  C   UNL     1     -10.291  15.067  67.143  0.00  0.00    +0.253 C 
ATOM     30  O   UNL     1      -9.804  13.893  66.315  0.00  0.00    -0.328 OA
BRANCH  23  32
ATOM     31  N   UNL     1     -10.810  15.763  64.772  0.00  0.00    -0.129 NA
ATOM     32  C   UNL     1     -10.971  15.559  65.062  0.00  0.00    +0.141 C 
ENDBRANCH  23  32
ENDBRANCH  22  29
ENDBRANCH   1  22
TORSDOF 6
ENDMDL
