MODEL 1
REMARK VINA RESULT:      -5.5      0.000      0.000
REMARK  Name = 
REMARK  1 active torsions:
REMARK  status: ('A' for Active; 'I' for Inactive)
REMARK    1  A    between atoms: N_7  and  C_8
REMARK                            x       y       z     vdW  Elec       q    Type
REMARK                         _______ _______ _______ _____ _____    ______ ____
ROOT
ATOM      1  C   UNL     1     -11.931  11.141  68.910  0.00  0.00    +0.033 C 
ATOM      2  C   UNL     1     -11.611  12.587  68.737  0.00  0.00    -0.004 A 
ATOM      3  C   UNL     1     -11.383  13.445  69.787  0.00  0.00    +0.079 A 
ATOM      4  N   UNL     1     -11.657  14.768  69.710  0.00  0.00    -0.273 N 
ATOM      5  C   UNL     1     -11.535  15.320  68.483  0.00  0.00    +0.265 A 
ATOM      6  O   UNL     1     -11.927  16.512  68.302  0.00  0.00    -0.267 OA
ATOM      7  C   UNL     1     -11.466  14.489  67.371  0.00  0.00    +0.061 A 
ATOM      8  C   UNL     1     -11.729  13.126  67.464  0.00  0.00    +0.002 A 
ENDROOT
BRANCH   4   9
ATOM      9  C   UNL     1     -12.386  15.460  70.735  0.00  0.00    +0.067 A 
ATOM     10  C   UNL     1     -13.649  15.024  71.122  0.00  0.00    +0.018 A 
ATOM     11  C   UNL     1     -13.996  14.887  72.462  0.00  0.00    +0.001 A 
ATOM     12  C   UNL     1     -13.126  15.329  73.452  0.00  0.00    +0.000 A 
ATOM     13  C   UNL     1     -12.164  16.236  73.025  0.00  0.00    +0.001 A 
ATOM     14  C   UNL     1     -11.678  16.122  71.728  0.00  0.00    +0.018 A 
ENDBRANCH   4   9
TORSDOF 1
ENDMDL
MODEL 2
REMARK VINA RESULT:      -5.4      3.574      4.928
REMARK  Name = 
REMARK  1 active torsions:
REMARK  status: ('A' for Active; 'I' for Inactive)
REMARK    1  A    between atoms: N_7  and  C_8
REMARK                            x       y       z     vdW  Elec       q    Type
REMARK                         _______ _______ _______ _____ _____    ______ ____
ROOT
ATOM      1  C   UNL     1     -11.688  13.352  68.332  0.00  0.00    +0.033 C 
ATOM      2  C   UNL     1     -11.362  14.074  67.068  0.00  0.00    -0.004 A 
ATOM      3  C   UNL     1     -10.288  14.921  66.934  0.00  0.00    +0.079 A 
ATOM      4  N   UNL     1     -10.297  15.965  66.072  0.00  0.00    -0.273 N 
ATOM      5  C   UNL     1     -11.036  15.793  64.953  0.00  0.00    +0.265 A 
ATOM      6  O   UNL     1     -11.221  16.781  64.180  0.00  0.00    -0.267 OA
ATOM      7  C   UNL     1     -11.958  14.754  64.904  0.00  0.00    +0.061 A 
ATOM      8  C   UNL     1     -12.292  14.023  66.039  0.00  0.00    +0.002 A 
ENDROOT
BRANCH   4   9
ATOM      9  C   UNL     1      -9.891  17.285  66.463  0.00  0.00    +0.067 A 
ATOM     10  C   UNL     1     -10.569  17.965  67.470  0.00  0.00    +0.018 A 
ATOM     11  C   UNL     1      -9.893  18.611  68.498  0.00  0.00    +0.001 A 
ATOM     12  C   UNL     1      -8.508  18.717  68.459  0.00  0.00    +0.000 A 
ATOM     13  C   UNL     1      -7.941  18.527  67.205  0.00  0.00    +0.001 A 
ATOM     14  C   UNL     1      -8.557  17.641  66.328  0.00  0.00    +0.018 A 
ENDBRANCH   4   9
TORSDOF 1
ENDMDL
MODEL 3
REMARK VINA RESULT:      -5.1      3.240      4.552
REMARK  Name = 
REMARK  1 active torsions:
REMARK  status: ('A' for Active; 'I' for Inactive)
REMARK    1  A    between atoms: N_7  and  C_8
REMARK                            x       y       z     vdW  Elec       q    Type
REMARK                         _______ _______ _______ _____ _____    ______ ____
ROOT
ATOM      1  C   UNL     1     -10.023  10.204  65.315  0.00  0.00    +0.033 C 
ATOM      2  C   UNL     1     -10.516  11.513  64.796  0.00  0.00    -0.004 A 
ATOM      3  C   UNL     1     -10.205  12.722  65.370  0.00  0.00    +0.079 A 
ATOM      4  N   UNL     1     -11.037  13.788  65.302  0.00  0.00    -0.273 N 
ATOM      5  C   UNL     1     -11.804  13.861  64.191  0.00  0.00    +0.265 A 
ATOM      6  O   UNL     1     -12.718  14.738  64.130  0.00  0.00    -0.267 OA
ATOM      7  C   UNL     1     -11.936  12.736  63.385  0.00  0.00    +0.061 A 
ATOM      8  C   UNL     1     -11.478  11.488  63.796  0.00  0.00    +0.002 A 
ENDROOT
BRANCH   4   9
ATOM      9  C   UNL     1     -11.377  14.569  66.457  0.00  0.00    +0.067 A 
ATOM     10  C   UNL     1     -11.995  13.979  67.553  0.00  0.00    +0.018 A 
ATOM     11  C   UNL     1     -11.555  14.209  68.852  0.00  0.00    +0.001 A 
ATOM     12  C   UNL     1     -10.571  15.161  69.093  0.00  0.00    +0.000 A 
ATOM     13  C   UNL     1     -10.393  16.090  68.074  0.00  0.00    +0.001 A 
ATOM     14  C   UNL     1     -10.604  15.681  66.762  0.00  0.00    +0.018 A 
ENDBRANCH   4   9
TORSDOF 1
ENDMDL
MODEL 4
REMARK VINA RESULT:      -5.1      1.580      2.915
REMARK  Name = 
REMARK  1 active torsions:
REMARK  status: ('A' for Active; 'I' for Inactive)
REMARK    1  A    between atoms: N_7  and  C_8
REMARK                            x       y       z     vdW  Elec       q    Type
REMARK                         _______ _______ _______ _____ _____    ______ ____
ROOT
ATOM      1  C   UNL     1      -9.916  17.502  68.044  0.00  0.00    +0.033 C 
ATOM      2  C   UNL     1     -10.603  16.182  68.139  0.00  0.00    -0.004 A 
ATOM      3  C   UNL     1     -11.719  15.961  68.911  0.00  0.00    +0.079 A 
ATOM      4  N   UNL     1     -11.996  14.750  69.449  0.00  0.00    -0.273 N 
ATOM      5  C   UNL     1     -11.571  13.683  68.737  0.00  0.00    +0.265 A 
ATOM      6  O   UNL     1     -11.651  12.527  69.252  0.00  0.00    -0.267 OA
ATOM      7  C   UNL     1     -10.639  13.873  67.723  0.00  0.00    +0.061 A 
ATOM      8  C   UNL     1      -9.977  15.086  67.562  0.00  0.00    +0.002 A 
ENDROOT
BRANCH   4   9
ATOM      9  C   UNL     1     -12.356  14.590  70.829  0.00  0.00    +0.067 A 
ATOM     10  C   UNL     1     -11.551  15.113  71.836  0.00  0.00    +0.018 A 
ATOM     11  C   UNL     1     -12.084  15.845  72.891  0.00  0.00    +0.001 A 
ATOM     12  C   UNL     1     -13.463  15.944  73.040  0.00  0.00    +0.000 A 
ATOM     13  C   UNL     1     -14.196  14.975  72.366  0.00  0.00    +0.001 A 
ATOM     14  C   UNL     1     -13.699  14.489  71.162  0.00  0.00    +0.018 A 
ENDBRANCH   4   9
TORSDOF 1
ENDMDL
MODEL 5
REMARK VINA RESULT:      -4.9      3.617      5.446
REMARK  Name = 
REMARK  1 active torsions:
REMARK  status: ('A' for Active; 'I' for Inactive)
REMARK    1  A    between atoms: N_7  and  C_8
REMARK                            x       y       z     vdW  Elec       q    Type
REMARK                         _______ _______ _______ _____ _____    ______ ____
ROOT
ATOM      1  C   UNL     1     -11.986  15.612  70.045  0.00  0.00    +0.033 C 
ATOM      2  C   UNL     1     -11.345  15.479  68.705  0.00  0.00    -0.004 A 
ATOM      3  C   UNL     1     -10.273  16.238  68.298  0.00  0.00    +0.079 A 
ATOM      4  N   UNL     1     -10.060  16.544  66.997  0.00  0.00    -0.273 N 
ATOM      5  C   UNL     1     -10.484  15.624  66.102  0.00  0.00    +0.265 A 
ATOM      6  O   UNL     1     -10.463  15.910  64.867  0.00  0.00    -0.267 OA
ATOM      7  C   UNL     1     -11.361  14.629  66.519  0.00  0.00    +0.061 A 
ATOM      8  C   UNL     1     -11.977  14.678  67.765  0.00  0.00    +0.002 A 
ENDROOT
BRANCH   4   9
ATOM      9  C   UNL     1      -9.769  17.881  66.562  0.00  0.00    +0.067 A 
ATOM     10  C   UNL     1     -10.583  18.942  66.945  0.00  0.00    +0.018 A 
ATOM     11  C   UNL     1     -10.052  20.130  67.434  0.00  0.00    +0.001 A 
ATOM     12  C   UNL     1      -8.677  20.338  67.411  0.00  0.00    +0.000 A 
ATOM     13  C   UNL     1      -7.976  19.518  66.535  0.00  0.00    +0.001 A 
ATOM     14  C   UNL     1      -8.450  18.230  66.312  0.00  0.00    +0.018 A 
ENDBRANCH   4   9
TORSDOF 1
ENDMDL
MODEL 6
REMARK VINA RESULT:      -4.9      2.790      6.069
REMARK  Name = 
REMARK  1 active torsions:
REMARK  status: ('A' for Active; 'I' for Inactive)
REMARK    1  A    between atoms: N_7  and  C_8
REMARK                            x       y       z     vdW  Elec       q    Type
REMARK                         _______ _______ _______ _____ _____    ______ ____
ROOT
ATOM      1  C   UNL     1     -11.900  13.665  69.658  0.00  0.00    +0.033 C 
ATOM      2  C   UNL     1     -11.605  14.593  68.528  0.00  0.00    -0.004 A 
ATOM      3  C   UNL     1     -12.022  14.373  67.237  0.00  0.00    +0.079 A 
ATOM      4  N   UNL     1     -11.332  14.834  66.168  0.00  0.00    -0.273 N 
ATOM      5  C   UNL     1     -10.654  15.987  66.363  0.00  0.00    +0.265 A 
ATOM      6  O   UNL     1      -9.859  16.394  65.462  0.00  0.00    -0.267 OA
ATOM      7  C   UNL     1     -10.440  16.435  67.661  0.00  0.00    +0.061 A 
ATOM      8  C   UNL     1     -10.715  15.631  68.763  0.00  0.00    +0.002 A 
ENDROOT
BRANCH   4   9
ATOM      9  C   UNL     1     -11.014  14.000  65.044  0.00  0.00    +0.067 A 
ATOM     10  C   UNL     1     -10.110  12.952  65.174  0.00  0.00    +0.018 A 
ATOM     11  C   UNL     1     -10.385  11.683  64.675  0.00  0.00    +0.001 A 
ATOM     12  C   UNL     1     -11.519  11.474  63.899  0.00  0.00    +0.000 A 
ATOM     13  C   UNL     1     -12.070  12.624  63.345  0.00  0.00    +0.001 A 
ATOM     14  C   UNL     1     -11.973  13.813  64.059  0.00  0.00    +0.018 A 
ENDBRANCH   4   9
TORSDOF 1
ENDMDL
MODEL 7
REMARK VINA RESULT:      -4.9      1.267      4.600
REMARK  Name = 
REMARK  1 active torsions:
REMARK  status: ('A' for Active; 'I' for Inactive)
REMARK    1  A    between atoms: N_7  and  C_8
REMARK                            x       y       z     vdW  Elec       q    Type
REMARK                         _______ _______ _______ _____ _____    ______ ____
ROOT
ATOM      1  C   UNL     1     -13.607  13.165  72.393  0.00  0.00    +0.033 C 
ATOM      2  C   UNL     1     -12.997  14.270  71.599  0.00  0.00    -0.004 A 
ATOM      3  C   UNL     1     -13.010  14.314  70.225  0.00  0.00    +0.079 A 
ATOM      4  N   UNL     1     -12.037  14.931  69.515  0.00  0.00    -0.273 N 
ATOM      5  C   UNL     1     -11.456  15.992  70.117  0.00  0.00    +0.265 A 
ATOM      6  O   UNL     1     -10.434  16.520  69.584  0.00  0.00    -0.267 OA
ATOM      7  C   UNL     1     -11.641  16.181  71.482  0.00  0.00    +0.061 A 
ATOM      8  C   UNL     1     -12.225  15.202  72.279  0.00  0.00    +0.002 A 
ENDROOT
BRANCH   4   9
ATOM      9  C   UNL     1     -11.393  14.305  68.394  0.00  0.00    +0.067 A 
ATOM     10  C   UNL     1     -10.722  13.096  68.549  0.00  0.00    +0.018 A 
ATOM     11  C   UNL     1     -10.909  12.039  67.665  0.00  0.00    +0.001 A 
ATOM     12  C   UNL     1     -11.666  12.223  66.514  0.00  0.00    +0.000 A 
ATOM     13  C   UNL     1     -11.839  13.548  66.131  0.00  0.00    +0.001 A 
ATOM     14  C   UNL     1     -11.907  14.519  67.124  0.00  0.00    +0.018 A 
ENDBRANCH   4   9
TORSDOF 1
ENDMDL
MODEL 8
REMARK VINA RESULT:      -4.8      3.938      5.311
REMARK  Name = 
REMARK  1 active torsions:
REMARK  status: ('A' for Active; 'I' for Inactive)
REMARK    1  A    between atoms: N_7  and  C_8
REMARK                            x       y       z     vdW  Elec       q    Type
REMARK                         _______ _______ _______ _____ _____    ______ ____
ROOT
ATOM      1  C   UNL     1      -9.224  16.094  66.200  0.00  0.00    +0.033 C 
ATOM      2  C   UNL     1     -10.496  15.353  65.964  0.00  0.00    -0.004 A 
ATOM      3  C   UNL     1     -11.079  14.530  66.898  0.00  0.00    +0.079 A 
ATOM      4  N   UNL     1     -11.841  13.468  66.547  0.00  0.00    -0.273 N 
ATOM      5  C   UNL     1     -12.526  13.596  65.389  0.00  0.00    +0.265 A 
ATOM      6  O   UNL     1     -13.132  12.588  64.917  0.00  0.00    -0.267 OA
ATOM      7  C   UNL     1     -12.176  14.611  64.505  0.00  0.00    +0.061 A 
ATOM      8  C   UNL     1     -11.016  15.358  64.677  0.00  0.00    +0.002 A 
ENDROOT
BRANCH   4   9
ATOM      9  C   UNL     1     -11.655  12.167  67.126  0.00  0.00    +0.067 A 
ATOM     10  C   UNL     1     -10.760  11.264  66.563  0.00  0.00    +0.018 A 
ATOM     11  C   UNL     1      -9.844  10.563  67.339  0.00  0.00    +0.001 A 
ATOM     12  C   UNL     1      -9.905  10.643  68.726  0.00  0.00    +0.000 A 
ATOM     13  C   UNL     1     -11.119  11.089  69.234  0.00  0.00    +0.001 A 
ATOM     14  C   UNL     1     -11.849  12.009  68.491  0.00  0.00    +0.018 A 
ENDBRANCH   4   9
TORSDOF 1
ENDMDL
MODEL 9
REMARK VINA RESULT:      -4.8      3.066      6.411
REMARK  Name = 
REMARK  1 active torsions:
REMARK  status: ('A' for Active; 'I' for Inactive)
REMARK    1  A    between atoms: N_7  and  C_8
REMARK                            x       y       z     vdW  Elec       q    Type
REMARK                         _______ _______ _______ _____ _____    ______ ____
ROOT
ATOM      1  C   UNL     1     -10.178  15.972  67.911  0.00  0.00    +0.033 C 
ATOM      2  C   UNL     1     -10.491  14.545  68.208  0.00  0.00    -0.004 A 
ATOM      3  C   UNL     1     -10.123  13.501  67.393  0.00  0.00    +0.079 A 
ATOM      4  N   UNL     1     -10.839  12.355  67.321  0.00  0.00    -0.273 N 
ATOM      5  C   UNL     1     -11.485  11.997  68.453  0.00  0.00    +0.265 A 
ATOM      6  O   UNL     1     -12.301  11.027  68.416  0.00  0.00    -0.267 OA
ATOM      7  C   UNL     1     -11.645  12.935  69.466  0.00  0.00    +0.061 A 
ATOM      8  C   UNL     1     -11.350  14.280  69.266  0.00  0.00    +0.002 A 
ENDROOT
BRANCH   4   9
ATOM      9  C   UNL     1     -11.213  11.762  66.068  0.00  0.00    +0.067 A 
ATOM     10  C   UNL     1     -12.038  12.445  65.181  0.00  0.00    +0.018 A 
ATOM     11  C   UNL     1     -11.738  12.536  63.826  0.00  0.00    +0.001 A 
ATOM     12  C   UNL     1     -10.672  11.814  63.302  0.00  0.00    +0.000 A 
ATOM     13  C   UNL     1     -10.244  10.749  64.086  0.00  0.00    +0.001 A 
ATOM     14  C   UNL     1     -10.342  10.865  65.468  0.00  0.00    +0.018 A 
ENDBRANCH   4   9
TORSDOF 1
ENDMDL
