MODEL 1
REMARK VINA RESULT:      -4.6      0.000      0.000
REMARK  Name = 
REMARK  1 active torsions:
REMARK  status: ('A' for Active; 'I' for Inactive)
REMARK    1  A    between atoms: N_2  and  C_3
REMARK                            x       y       z     vdW  Elec       q    Type
REMARK                         _______ _______ _______ _____ _____    ______ ____
ROOT
ATOM      1  C   UNL     1     -12.507  14.820  70.915  0.00  0.00    +0.059 C 
ATOM      2  C   UNL     1     -13.860  14.457  71.538  0.00  0.00    +0.014 C 
ATOM      3  C   UNL     1     -13.569  13.099  71.956  0.00  0.00    +0.001 C 
ATOM      4  C   UNL     1     -15.085  15.088  71.461  0.00  0.00    +0.001 C 
ATOM      5  C   UNL     1     -12.871  15.519  72.171  0.00  0.00    +0.001 C 
ATOM      6  C   UNL     1     -12.341  14.337  73.265  0.00  0.00    +0.001 C 
ATOM      7  C   UNL     1     -13.517  16.240  73.394  0.00  0.00    +0.000 C 
ATOM      8  C   UNL     1     -12.034  16.538  72.892  0.00  0.00    +0.001 C 
ATOM      9  C   UNL     1     -11.464  15.142  72.177  0.00  0.00    +0.015 C 
ATOM     10  C   UNL     1     -11.821  13.677  70.268  0.00  0.00    +0.017 C 
ENDROOT
BRANCH   1  12
ATOM     11  C   UNL     1     -12.008  15.660  68.998  0.00  0.00    +0.107 C 
ATOM     12  N   UNL     1     -12.429  15.847  69.998  0.00  0.00    -0.219 NA
ENDBRANCH   1  12
TORSDOF 1
ENDMDL
MODEL 2
REMARK VINA RESULT:      -4.4      4.539      6.689
REMARK  Name = 
REMARK  1 active torsions:
REMARK  status: ('A' for Active; 'I' for Inactive)
REMARK    1  A    between atoms: N_2  and  C_3
REMARK                            x       y       z     vdW  Elec       q    Type
REMARK                         _______ _______ _______ _____ _____    ______ ____
ROOT
ATOM      1  C   UNL     1     -10.803  12.112  66.742  0.00  0.00    +0.059 C 
ATOM      2  C   UNL     1     -10.852  13.594  67.130  0.00  0.00    +0.014 C 
ATOM      3  C   UNL     1      -9.516  13.987  66.726  0.00  0.00    +0.001 C 
ATOM      4  C   UNL     1     -11.754  14.292  67.907  0.00  0.00    +0.001 C 
ATOM      5  C   UNL     1     -11.697  12.980  65.939  0.00  0.00    +0.001 C 
ATOM      6  C   UNL     1     -10.541  13.570  64.848  0.00  0.00    +0.001 C 
ATOM      7  C   UNL     1     -12.678  14.033  65.337  0.00  0.00    +0.000 C 
ATOM      8  C   UNL     1     -12.547  12.545  64.778  0.00  0.00    +0.001 C 
ATOM      9  C   UNL     1     -10.987  12.038  65.085  0.00  0.00    +0.015 C 
ATOM     10  C   UNL     1      -9.465  11.496  66.904  0.00  0.00    +0.017 C 
ENDROOT
BRANCH   1  12
ATOM     11  C   UNL     1     -11.357  10.630  68.200  0.00  0.00    +0.107 C 
ATOM     12  N   UNL     1     -11.677  11.221  67.328  0.00  0.00    -0.219 NA
ENDBRANCH   1  12
TORSDOF 1
ENDMDL
MODEL 3
REMARK VINA RESULT:      -4.3      6.009      7.531
REMARK  Name = 
REMARK  1 active torsions:
REMARK  status: ('A' for Active; 'I' for Inactive)
REMARK    1  A    between atoms: N_2  and  C_3
REMARK                            x       y       z     vdW  Elec       q    Type
REMARK                         _______ _______ _______ _____ _____    ______ ____
ROOT
ATOM      1  C   UNL     1      -8.086  18.437  68.038  0.00  0.00    +0.059 C 
ATOM      2  C   UNL     1      -7.811  18.500  66.532  0.00  0.00    +0.014 C 
ATOM      3  C   UNL     1      -7.886  17.086  66.220  0.00  0.00    +0.001 C 
ATOM      4  C   UNL     1      -7.329  19.528  65.746  0.00  0.00    +0.001 C 
ATOM      5  C   UNL     1      -9.138  19.053  67.195  0.00  0.00    +0.001 C 
ATOM      6  C   UNL     1      -9.934  17.631  66.728  0.00  0.00    +0.001 C 
ATOM      7  C   UNL     1     -10.030  19.794  66.151  0.00  0.00    +0.000 C 
ATOM      8  C   UNL     1     -10.449  19.608  67.678  0.00  0.00    +0.001 C 
ATOM      9  C   UNL     1      -9.728  18.205  68.222  0.00  0.00    +0.015 C 
ATOM     10  C   UNL     1      -7.555  17.218  68.692  0.00  0.00    +0.017 C 
ENDROOT
BRANCH   1  12
ATOM     11  C   UNL     1      -6.683  19.472  69.300  0.00  0.00    +0.107 C 
ATOM     12  N   UNL     1      -7.689  19.478  68.852  0.00  0.00    -0.219 NA
ENDBRANCH   1  12
TORSDOF 1
ENDMDL
MODEL 4
REMARK VINA RESULT:      -4.3      6.610      8.046
REMARK  Name = 
REMARK  1 active torsions:
REMARK  status: ('A' for Active; 'I' for Inactive)
REMARK    1  A    between atoms: N_2  and  C_3
REMARK                            x       y       z     vdW  Elec       q    Type
REMARK                         _______ _______ _______ _____ _____    ______ ____
ROOT
ATOM      1  C   UNL     1      -7.835  19.556  66.688  0.00  0.00    +0.059 C 
ATOM      2  C   UNL     1      -7.823  18.091  67.137  0.00  0.00    +0.014 C 
ATOM      3  C   UNL     1      -7.627  18.283  68.561  0.00  0.00    +0.001 C 
ATOM      4  C   UNL     1      -7.715  16.926  66.406  0.00  0.00    +0.001 C 
ATOM      5  C   UNL     1      -9.118  18.821  66.593  0.00  0.00    +0.001 C 
ATOM      6  C   UNL     1      -9.638  19.037  68.192  0.00  0.00    +0.001 C 
ATOM      7  C   UNL     1     -10.307  17.823  66.431  0.00  0.00    +0.000 C 
ATOM      8  C   UNL     1     -10.427  19.380  66.109  0.00  0.00    +0.001 C 
ATOM      9  C   UNL     1      -9.333  20.173  67.088  0.00  0.00    +0.015 C 
ATOM     10  C   UNL     1      -6.948  20.434  67.488  0.00  0.00    +0.017 C 
ENDROOT
BRANCH   1  12
ATOM     11  C   UNL     1      -6.531  20.136  65.078  0.00  0.00    +0.107 C 
ATOM     12  N   UNL     1      -7.558  19.873  65.375  0.00  0.00    -0.219 NA
ENDBRANCH   1  12
TORSDOF 1
ENDMDL
MODEL 5
REMARK VINA RESULT:      -4.3      5.360      7.224
REMARK  Name = 
REMARK  1 active torsions:
REMARK  status: ('A' for Active; 'I' for Inactive)
REMARK    1  A    between atoms: N_2  and  C_3
REMARK                            x       y       z     vdW  Elec       q    Type
REMARK                         _______ _______ _______ _____ _____    ______ ____
ROOT
ATOM      1  C   UNL     1      -9.449  17.373  66.826  0.00  0.00    +0.059 C 
ATOM      2  C   UNL     1      -9.893  18.832  66.985  0.00  0.00    +0.014 C 
ATOM      3  C   UNL     1      -9.955  18.901  68.433  0.00  0.00    +0.001 C 
ATOM      4  C   UNL     1     -10.388  19.729  66.061  0.00  0.00    +0.001 C 
ATOM      5  C   UNL     1      -8.462  18.413  66.453  0.00  0.00    +0.001 C 
ATOM      6  C   UNL     1      -7.829  18.707  67.998  0.00  0.00    +0.001 C 
ATOM      7  C   UNL     1      -7.647  19.656  65.976  0.00  0.00    +0.000 C 
ATOM      8  C   UNL     1      -7.067  18.171  65.946  0.00  0.00    +0.001 C 
ATOM      9  C   UNL     1      -7.818  17.322  67.171  0.00  0.00    +0.015 C 
ATOM     10  C   UNL     1      -9.986  16.468  67.869  0.00  0.00    +0.017 C 
ENDROOT
BRANCH   1  12
ATOM     11  C   UNL     1     -10.536  16.037  65.536  0.00  0.00    +0.107 C 
ATOM     12  N   UNL     1      -9.674  16.715  65.635  0.00  0.00    -0.219 NA
ENDBRANCH   1  12
TORSDOF 1
ENDMDL
MODEL 6
REMARK VINA RESULT:      -4.2      4.067      6.534
REMARK  Name = 
REMARK  1 active torsions:
REMARK  status: ('A' for Active; 'I' for Inactive)
REMARK    1  A    between atoms: N_2  and  C_3
REMARK                            x       y       z     vdW  Elec       q    Type
REMARK                         _______ _______ _______ _____ _____    ______ ____
ROOT
ATOM      1  C   UNL     1     -10.079  17.267  67.341  0.00  0.00    +0.059 C 
ATOM      2  C   UNL     1      -8.579  17.136  67.628  0.00  0.00    +0.014 C 
ATOM      3  C   UNL     1      -8.094  16.967  66.272  0.00  0.00    +0.001 C 
ATOM      4  C   UNL     1      -7.904  16.925  68.814  0.00  0.00    +0.001 C 
ATOM      5  C   UNL     1      -9.386  18.483  67.828  0.00  0.00    +0.001 C 
ATOM      6  C   UNL     1      -8.790  19.032  66.339  0.00  0.00    +0.001 C 
ATOM      7  C   UNL     1      -8.499  19.584  68.491  0.00  0.00    +0.000 C 
ATOM      8  C   UNL     1     -10.013  19.831  68.054  0.00  0.00    +0.001 C 
ATOM      9  C   UNL     1     -10.329  18.815  66.769  0.00  0.00    +0.015 C 
ATOM     10  C   UNL     1     -10.539  16.462  66.185  0.00  0.00    +0.017 C 
ENDROOT
BRANCH   1  12
ATOM     11  C   UNL     1     -11.374  15.985  68.485  0.00  0.00    +0.107 C 
ATOM     12  N   UNL     1     -10.993  17.008  68.341  0.00  0.00    -0.219 NA
ENDBRANCH   1  12
TORSDOF 1
ENDMDL
MODEL 7
REMARK VINA RESULT:      -4.2      4.710      6.856
REMARK  Name = 
REMARK  1 active torsions:
REMARK  status: ('A' for Active; 'I' for Inactive)
REMARK    1  A    between atoms: N_2  and  C_3
REMARK                            x       y       z     vdW  Elec       q    Type
REMARK                         _______ _______ _______ _____ _____    ______ ____
ROOT
ATOM      1  C   UNL     1     -10.611  14.186  65.653  0.00  0.00    +0.059 C 
ATOM      2  C   UNL     1     -11.748  13.714  66.567  0.00  0.00    +0.014 C 
ATOM      3  C   UNL     1     -12.879  14.024  65.713  0.00  0.00    +0.001 C 
ATOM      4  C   UNL     1     -11.749  13.384  67.907  0.00  0.00    +0.001 C 
ATOM      5  C   UNL     1     -10.716  12.726  65.883  0.00  0.00    +0.001 C 
ATOM      6  C   UNL     1     -11.875  12.379  64.694  0.00  0.00    +0.001 C 
ATOM      7  C   UNL     1     -10.916  11.261  66.383  0.00  0.00    +0.000 C 
ATOM      8  C   UNL     1      -9.823  11.669  65.297  0.00  0.00    +0.001 C 
ATOM      9  C   UNL     1     -10.404  13.009  64.489  0.00  0.00    +0.015 C 
ATOM     10  C   UNL     1     -10.966  15.354  64.813  0.00  0.00    +0.017 C 
ENDROOT
BRANCH   1  12
ATOM     11  C   UNL     1      -9.096  15.553  66.337  0.00  0.00    +0.107 C 
ATOM     12  N   UNL     1      -9.382  14.499  66.195  0.00  0.00    -0.219 NA
ENDBRANCH   1  12
TORSDOF 1
ENDMDL
MODEL 8
REMARK VINA RESULT:      -4.1      3.650      5.567
REMARK  Name = 
REMARK  1 active torsions:
REMARK  status: ('A' for Active; 'I' for Inactive)
REMARK    1  A    between atoms: N_2  and  C_3
REMARK                            x       y       z     vdW  Elec       q    Type
REMARK                         _______ _______ _______ _____ _____    ______ ____
ROOT
ATOM      1  C   UNL     1      -9.942  17.346  67.724  0.00  0.00    +0.059 C 
ATOM      2  C   UNL     1      -9.789  16.308  66.606  0.00  0.00    +0.014 C 
ATOM      3  C   UNL     1      -8.437  15.863  66.882  0.00  0.00    +0.001 C 
ATOM      4  C   UNL     1     -10.558  16.073  65.484  0.00  0.00    +0.001 C 
ATOM      5  C   UNL     1     -10.762  16.117  67.841  0.00  0.00    +0.001 C 
ATOM      6  C   UNL     1      -9.599  15.122  68.570  0.00  0.00    +0.001 C 
ATOM      7  C   UNL     1     -11.636  14.834  67.682  0.00  0.00    +0.000 C 
ATOM      8  C   UNL     1     -11.716  15.790  68.955  0.00  0.00    +0.001 C 
ATOM      9  C   UNL     1     -10.217  16.500  69.136  0.00  0.00    +0.015 C 
ATOM     10  C   UNL     1      -8.683  18.052  68.059  0.00  0.00    +0.017 C 
ENDROOT
BRANCH   1  12
ATOM     11  C   UNL     1     -10.605  19.325  67.200  0.00  0.00    +0.107 C 
ATOM     12  N   UNL     1     -10.888  18.342  67.609  0.00  0.00    -0.219 NA
ENDBRANCH   1  12
TORSDOF 1
ENDMDL
MODEL 9
REMARK VINA RESULT:      -4.0      5.620      7.270
REMARK  Name = 
REMARK  1 active torsions:
REMARK  status: ('A' for Active; 'I' for Inactive)
REMARK    1  A    between atoms: N_2  and  C_3
REMARK                            x       y       z     vdW  Elec       q    Type
REMARK                         _______ _______ _______ _____ _____    ______ ____
ROOT
ATOM      1  C   UNL     1      -8.932  18.769  66.688  0.00  0.00    +0.059 C 
ATOM      2  C   UNL     1      -8.557  18.491  68.148  0.00  0.00    +0.014 C 
ATOM      3  C   UNL     1      -9.748  19.002  68.798  0.00  0.00    +0.001 C 
ATOM      4  C   UNL     1      -7.346  18.153  68.718  0.00  0.00    +0.001 C 
ATOM      5  C   UNL     1      -8.872  17.347  67.101  0.00  0.00    +0.001 C 
ATOM      6  C   UNL     1     -10.434  17.219  67.749  0.00  0.00    +0.001 C 
ATOM      7  C   UNL     1      -8.599  15.934  67.704  0.00  0.00    +0.000 C 
ATOM      8  C   UNL     1      -9.156  16.157  66.227  0.00  0.00    +0.001 C 
ATOM      9  C   UNL     1     -10.018  17.586  66.234  0.00  0.00    +0.015 C 
ATOM     10  C   UNL     1      -9.753  19.989  66.503  0.00  0.00    +0.017 C 
ENDROOT
BRANCH   1  12
ATOM     11  C   UNL     1      -7.326  19.767  65.662  0.00  0.00    +0.107 C 
ATOM     12  N   UNL     1      -7.943  18.858  65.731  0.00  0.00    -0.219 NA
ENDBRANCH   1  12
TORSDOF 1
ENDMDL
