MODEL 1
REMARK VINA RESULT:      -7.1      0.000      0.000
REMARK  Name = 
REMARK  6 active torsions:
REMARK  status: ('A' for Active; 'I' for Inactive)
REMARK    1  A    between atoms: C_2  and  O_4
REMARK    2  A    between atoms: O_4  and  C_5
REMARK    3  A    between atoms: C_6  and  N_7
REMARK    4  A    between atoms: C_21  and  O_22
REMARK    5  A    between atoms: O_22  and  C_23
REMARK    6  A    between atoms: C_26  and  N_27
REMARK                            x       y       z     vdW  Elec       q    Type
REMARK                         _______ _______ _______ _____ _____    ______ ____
ROOT
ATOM      1  C   UNL     1      -9.257  11.706  66.198  0.00  0.00    +0.217 C 
ATOM      2  C   UNL     1      -9.385  10.451  67.213  0.00  0.00    +0.043 C 
ATOM      3  C   UNL     1     -10.192  11.159  68.406  0.00  0.00    +0.009 C 
ATOM      4  C   UNL     1     -10.739   9.698  69.023  0.00  0.00    +0.000 C 
ATOM      5  C   UNL     1      -9.242   9.464  69.761  0.00  0.00    +0.000 C 
ATOM      6  C   UNL     1      -8.578   8.723  68.480  0.00  0.00    +0.000 C 
ATOM      7  C   UNL     1      -9.715   8.100  70.490  0.00  0.00    +0.006 C 
ATOM      8  C   UNL     1     -10.009   8.868  71.894  0.00  0.00    +0.004 C 
ATOM      9  C   UNL     1     -10.611   7.620  72.733  0.00  0.00    +0.050 C 
ATOM     10  C   UNL     1     -10.020   6.268  72.064  0.00  0.00    +0.217 C 
ATOM     11  C   UNL     1      -8.382   6.768  72.162  0.00  0.00    +0.099 C 
ATOM     12  C   UNL     1     -11.493   9.360  71.409  0.00  0.00    +0.000 C 
ATOM     13  C   UNL     1     -10.870   7.488  69.918  0.00  0.00    +0.000 C 
ATOM     14  C   UNL     1      -8.466   7.350  70.641  0.00  0.00    +0.059 C 
ATOM     15  C   UNL     1     -11.305  10.398  70.355  0.00  0.00    +0.000 C 
ATOM     16  C   UNL     1     -11.391  11.378  67.321  0.00  0.00    +0.059 C 
ATOM     17  C   UNL     1     -10.165   9.345  66.646  0.00  0.00    +0.004 C 
ATOM     18  C   UNL     1      -8.103   9.965  67.701  0.00  0.00    +0.004 C 
ATOM     19  C   UNL     1     -10.425  12.665  67.025  0.00  0.00    +0.099 C 
ENDROOT
BRANCH  19  20
ATOM     20  N   UNL     1     -11.201  13.210  65.801  0.00  0.00    +0.300 N 
ATOM     21  C   UNL     1     -12.080  14.177  66.477  0.00  0.00    +0.109 C 
ATOM     22  C   UNL     1     -11.454  14.989  67.509  0.00  0.00    +0.061 C 
ATOM     23  C   UNL     1     -10.478  15.886  66.772  0.00  0.00    +0.012 C 
ATOM     24  C   UNL     1      -9.599  15.033  65.918  0.00  0.00    +0.061 C 
ATOM     25  C   UNL     1     -10.341  14.018  65.058  0.00  0.00    +0.109 C 
ATOM     26  C   UNL     1     -12.235  12.461  65.335  0.00  0.00    +0.170 C 
ENDBRANCH  19  20
BRANCH  11  27
ATOM     27  N   UNL     1      -7.782   5.409  71.704  0.00  0.00    +0.300 N 
ATOM     28  C   UNL     1      -7.338   4.629  72.781  0.00  0.00    +0.109 C 
ATOM     29  C   UNL     1      -5.946   4.113  72.485  0.00  0.00    +0.061 C 
ATOM     30  C   UNL     1      -6.092   3.395  71.148  0.00  0.00    +0.012 C 
ATOM     31  C   UNL     1      -6.390   4.429  70.068  0.00  0.00    +0.061 C 
ATOM     32  C   UNL     1      -6.688   5.729  70.787  0.00  0.00    +0.109 C 
ATOM     33  C   UNL     1      -8.728   4.742  70.849  0.00  0.00    +0.170 C 
ENDBRANCH  11  27
BRANCH   1  34
ATOM     34  O   UNL     1     -10.226  11.121  65.174  0.00  0.00    -0.446 OA
BRANCH  34  36
ATOM     35  C   UNL     1      -8.366  10.325  63.756  0.00  0.00    +0.121 C 
ATOM     36  C   UNL     1      -9.725  10.695  63.983  0.00  0.00    +0.318 C 
ATOM     37  O   UNL     1     -10.434  10.982  62.971  0.00  0.00    -0.250 OA
ENDBRANCH  34  36
ENDBRANCH   1  34
BRANCH  10  38
ATOM     38  O   UNL     1      -9.948   5.541  73.403  0.00  0.00    -0.446 OA
BRANCH  38  39
ATOM     39  C   UNL     1     -10.840   4.573  73.713  0.00  0.00    +0.318 C 
ATOM     40  O   UNL     1     -11.982   4.585  73.178  0.00  0.00    -0.250 OA
ATOM     41  C   UNL     1     -10.376   3.439  74.576  0.00  0.00    +0.121 C 
ENDBRANCH  38  39
ENDBRANCH  10  38
TORSDOF 6
ENDMDL
MODEL 2
REMARK VINA RESULT:      -6.8      1.507      9.475
REMARK  Name = 
REMARK  6 active torsions:
REMARK  status: ('A' for Active; 'I' for Inactive)
REMARK    1  A    between atoms: C_2  and  O_4
REMARK    2  A    between atoms: O_4  and  C_5
REMARK    3  A    between atoms: C_6  and  N_7
REMARK    4  A    between atoms: C_21  and  O_22
REMARK    5  A    between atoms: O_22  and  C_23
REMARK    6  A    between atoms: C_26  and  N_27
REMARK                            x       y       z     vdW  Elec       q    Type
REMARK                         _______ _______ _______ _____ _____    ______ ____
ROOT
ATOM      1  C   UNL     1      -8.651   6.669  71.478  0.00  0.00    +0.217 C 
ATOM      2  C   UNL     1      -9.285   7.797  70.506  0.00  0.00    +0.043 C 
ATOM      3  C   UNL     1      -8.617   7.352  69.116  0.00  0.00    +0.009 C 
ATOM      4  C   UNL     1      -9.769   8.157  68.201  0.00  0.00    +0.000 C 
ATOM      5  C   UNL     1      -8.960   9.609  68.481  0.00  0.00    +0.000 C 
ATOM      6  C   UNL     1      -9.756   9.941  69.854  0.00  0.00    +0.000 C 
ATOM      7  C   UNL     1      -9.956  10.452  67.527  0.00  0.00    +0.006 C 
ATOM      8  C   UNL     1      -8.917  10.400  66.275  0.00  0.00    +0.004 C 
ATOM      9  C   UNL     1      -9.837  11.135  65.164  0.00  0.00    +0.050 C 
ATOM     10  C   UNL     1     -10.900  12.062  65.962  0.00  0.00    +0.217 C 
ATOM     11  C   UNL     1      -9.707  12.876  66.888  0.00  0.00    +0.099 C 
ATOM     12  C   UNL     1      -9.415   8.909  65.817  0.00  0.00    +0.000 C 
ATOM     13  C   UNL     1     -11.206   9.817  67.261  0.00  0.00    +0.000 C 
ATOM     14  C   UNL     1      -9.906  11.800  68.097  0.00  0.00    +0.059 C 
ATOM     15  C   UNL     1      -8.939   7.937  66.843  0.00  0.00    +0.000 C 
ATOM     16  C   UNL     1      -9.442   5.955  69.291  0.00  0.00    +0.059 C 
ATOM     17  C   UNL     1     -10.748   7.714  70.427  0.00  0.00    +0.004 C 
ATOM     18  C   UNL     1      -8.875   9.152  70.842  0.00  0.00    +0.004 C 
ATOM     19  C   UNL     1      -8.101   5.673  70.184  0.00  0.00    +0.099 C 
ENDROOT
BRANCH  19  20
ATOM     20  N   UNL     1      -8.529   4.293  70.742  0.00  0.00    +0.300 N 
ATOM     21  C   UNL     1      -7.858   3.416  69.771  0.00  0.00    +0.109 C 
ATOM     22  C   UNL     1      -6.502   3.793  69.406  0.00  0.00    +0.061 C 
ATOM     23  C   UNL     1      -5.679   3.588  70.664  0.00  0.00    +0.012 C 
ATOM     24  C   UNL     1      -6.336   4.319  71.787  0.00  0.00    +0.061 C 
ATOM     25  C   UNL     1      -7.830   4.060  71.927  0.00  0.00    +0.109 C 
ATOM     26  C   UNL     1      -9.773   3.850  70.420  0.00  0.00    +0.170 C 
ENDBRANCH  19  20
BRANCH  11  27
ATOM     27  N   UNL     1     -10.685  13.904  67.522  0.00  0.00    +0.300 N 
ATOM     28  C   UNL     1     -10.640  15.152  66.884  0.00  0.00    +0.109 C 
ATOM     29  C   UNL     1     -10.524  16.244  67.926  0.00  0.00    +0.061 C 
ATOM     30  C   UNL     1     -11.713  16.003  68.850  0.00  0.00    +0.012 C 
ATOM     31  C   UNL     1     -11.493  14.692  69.596  0.00  0.00    +0.061 C 
ATOM     32  C   UNL     1     -10.314  14.011  68.934  0.00  0.00    +0.109 C 
ATOM     33  C   UNL     1     -12.000  13.326  67.584  0.00  0.00    +0.170 C 
ENDBRANCH  11  27
BRANCH   1  34
ATOM     34  O   UNL     1      -9.977   5.943  71.687  0.00  0.00    -0.446 OA
BRANCH  34  36
ATOM     35  C   UNL     1     -10.093   6.814  73.996  0.00  0.00    +0.121 C 
ATOM     36  C   UNL     1     -10.565   6.015  72.912  0.00  0.00    +0.318 C 
ATOM     37  O   UNL     1     -11.355   5.061  73.184  0.00  0.00    -0.250 OA
ENDBRANCH  34  36
ENDBRANCH   1  34
BRANCH  10  38
ATOM     38  O   UNL     1     -10.895  13.140  64.883  0.00  0.00    -0.446 OA
BRANCH  38  39
ATOM     39  C   UNL     1     -11.958  13.302  64.063  0.00  0.00    +0.318 C 
ATOM     40  O   UNL     1     -12.437  14.454  63.887  0.00  0.00    -0.250 OA
ATOM     41  C   UNL     1     -12.431  12.113  63.284  0.00  0.00    +0.121 C 
ENDBRANCH  38  39
ENDBRANCH  10  38
TORSDOF 6
ENDMDL
MODEL 3
REMARK VINA RESULT:      -6.7      5.341      9.580
REMARK  Name = 
REMARK  6 active torsions:
REMARK  status: ('A' for Active; 'I' for Inactive)
REMARK    1  A    between atoms: C_2  and  O_4
REMARK    2  A    between atoms: O_4  and  C_5
REMARK    3  A    between atoms: C_6  and  N_7
REMARK    4  A    between atoms: C_21  and  O_22
REMARK    5  A    between atoms: O_22  and  C_23
REMARK    6  A    between atoms: C_26  and  N_27
REMARK                            x       y       z     vdW  Elec       q    Type
REMARK                         _______ _______ _______ _____ _____    ______ ____
ROOT
ATOM      1  C   UNL     1      -6.561  19.941  67.267  0.00  0.00    +0.217 C 
ATOM      2  C   UNL     1      -7.407  18.697  67.865  0.00  0.00    +0.043 C 
ATOM      3  C   UNL     1      -7.669  17.881  66.507  0.00  0.00    +0.009 C 
ATOM      4  C   UNL     1      -7.974  16.447  67.322  0.00  0.00    +0.000 C 
ATOM      5  C   UNL     1      -9.534  16.986  67.662  0.00  0.00    +0.000 C 
ATOM      6  C   UNL     1      -9.118  17.732  69.041  0.00  0.00    +0.000 C 
ATOM      7  C   UNL     1      -9.957  15.596  68.370  0.00  0.00    +0.006 C 
ATOM      8  C   UNL     1     -10.702  15.057  67.027  0.00  0.00    +0.004 C 
ATOM      9  C   UNL     1     -11.106  13.578  67.550  0.00  0.00    +0.050 C 
ATOM     10  C   UNL     1     -11.183  13.649  69.167  0.00  0.00    +0.217 C 
ATOM     11  C   UNL     1     -12.257  14.987  69.196  0.00  0.00    +0.099 C 
ATOM     12  C   UNL     1      -9.303  14.526  66.363  0.00  0.00    +0.000 C 
ATOM     13  C   UNL     1      -8.861  14.781  68.784  0.00  0.00    +0.000 C 
ATOM     14  C   UNL     1     -10.990  16.005  69.324  0.00  0.00    +0.059 C 
ATOM     15  C   UNL     1      -8.497  15.723  65.986  0.00  0.00    +0.000 C 
ATOM     16  C   UNL     1      -6.048  17.719  66.419  0.00  0.00    +0.059 C 
ATOM     17  C   UNL     1      -6.630  17.891  68.811  0.00  0.00    +0.004 C 
ATOM     18  C   UNL     1      -8.676  19.089  68.460  0.00  0.00    +0.004 C 
ATOM     19  C   UNL     1      -6.280  19.190  65.742  0.00  0.00    +0.099 C 
ENDROOT
BRANCH  19  20
ATOM     20  N   UNL     1      -4.786  19.558  65.564  0.00  0.00    +0.300 N 
ATOM     21  C   UNL     1      -4.547  18.978  64.233  0.00  0.00    +0.109 C 
ATOM     22  C   UNL     1      -5.594  19.199  63.247  0.00  0.00    +0.061 C 
ATOM     23  C   UNL     1      -5.569  20.691  62.969  0.00  0.00    +0.012 C 
ATOM     24  C   UNL     1      -5.661  21.419  64.270  0.00  0.00    +0.061 C 
ATOM     25  C   UNL     1      -4.694  20.931  65.340  0.00  0.00    +0.109 C 
ATOM     26  C   UNL     1      -3.871  18.760  66.175  0.00  0.00    +0.170 C 
ENDBRANCH  19  20
BRANCH  11  27
ATOM     27  N   UNL     1     -12.497  14.952  70.732  0.00  0.00    +0.300 N 
ATOM     28  C   UNL     1     -13.802  14.557  71.062  0.00  0.00    +0.109 C 
ATOM     29  C   UNL     1     -14.373  15.518  72.082  0.00  0.00    +0.061 C 
ATOM     30  C   UNL     1     -13.356  15.500  73.219  0.00  0.00    +0.012 C 
ATOM     31  C   UNL     1     -12.062  16.139  72.726  0.00  0.00    +0.061 C 
ATOM     32  C   UNL     1     -12.203  16.297  71.226  0.00  0.00    +0.109 C 
ATOM     33  C   UNL     1     -11.471  14.156  71.350  0.00  0.00    +0.170 C 
ENDBRANCH  11  27
BRANCH   1  34
ATOM     34  O   UNL     1      -5.248  19.501  67.908  0.00  0.00    -0.446 OA
BRANCH  34  36
ATOM     35  C   UNL     1      -3.662  19.864  69.767  0.00  0.00    +0.121 C 
ATOM     36  C   UNL     1      -4.735  20.261  68.913  0.00  0.00    +0.318 C 
ATOM     37  O   UNL     1      -5.485  21.203  69.309  0.00  0.00    -0.250 OA
ENDBRANCH  34  36
ENDBRANCH   1  34
BRANCH  10  38
ATOM     38  O   UNL     1     -12.328  12.643  69.237  0.00  0.00    -0.446 OA
BRANCH  38  39
ATOM     39  C   UNL     1     -12.080  11.314  69.243  0.00  0.00    +0.318 C 
ATOM     40  O   UNL     1     -11.969  10.697  68.148  0.00  0.00    -0.250 OA
ATOM     41  C   UNL     1     -11.802  10.657  70.561  0.00  0.00    +0.121 C 
ENDBRANCH  38  39
ENDBRANCH  10  38
TORSDOF 6
ENDMDL
MODEL 4
REMARK VINA RESULT:      -6.4      2.091      4.175
REMARK  Name = 
REMARK  6 active torsions:
REMARK  status: ('A' for Active; 'I' for Inactive)
REMARK    1  A    between atoms: C_2  and  O_4
REMARK    2  A    between atoms: O_4  and  C_5
REMARK    3  A    between atoms: C_6  and  N_7
REMARK    4  A    between atoms: C_21  and  O_22
REMARK    5  A    between atoms: O_22  and  C_23
REMARK    6  A    between atoms: C_26  and  N_27
REMARK                            x       y       z     vdW  Elec       q    Type
REMARK                         _______ _______ _______ _____ _____    ______ ____
ROOT
ATOM      1  C   UNL     1     -11.536  12.169  67.816  0.00  0.00    +0.217 C 
ATOM      2  C   UNL     1     -10.844  10.852  68.454  0.00  0.00    +0.043 C 
ATOM      3  C   UNL     1     -10.563  10.024  67.107  0.00  0.00    +0.009 C 
ATOM      4  C   UNL     1      -9.386   9.073  67.832  0.00  0.00    +0.000 C 
ATOM      5  C   UNL     1     -10.596   8.128  68.527  0.00  0.00    +0.000 C 
ATOM      6  C   UNL     1     -10.734   9.046  69.857  0.00  0.00    +0.000 C 
ATOM      7  C   UNL     1      -9.538   7.091  69.174  0.00  0.00    +0.006 C 
ATOM      8  C   UNL     1      -9.739   6.020  67.965  0.00  0.00    +0.004 C 
ATOM      9  C   UNL     1      -8.633   4.928  68.420  0.00  0.00    +0.050 C 
ATOM     10  C   UNL     1      -8.430   5.094  70.019  0.00  0.00    +0.217 C 
ATOM     11  C   UNL     1     -10.100   4.956  70.387  0.00  0.00    +0.099 C 
ATOM     12  C   UNL     1      -8.683   6.800  66.987  0.00  0.00    +0.000 C 
ATOM     13  C   UNL     1      -8.206   7.589  69.283  0.00  0.00    +0.000 C 
ATOM     14  C   UNL     1     -10.246   6.579  70.350  0.00  0.00    +0.059 C 
ATOM     15  C   UNL     1      -9.316   8.083  66.568  0.00  0.00    +0.000 C 
ATOM     16  C   UNL     1      -9.585  11.259  66.681  0.00  0.00    +0.059 C 
ATOM     17  C   UNL     1      -9.587  11.156  69.147  0.00  0.00    +0.004 C 
ATOM     18  C   UNL     1     -11.730  10.095  69.325  0.00  0.00    +0.004 C 
ATOM     19  C   UNL     1     -11.052  11.805  66.203  0.00  0.00    +0.099 C 
ENDROOT
BRANCH  19  20
ATOM     20  N   UNL     1     -10.596  13.218  65.762  0.00  0.00    +0.300 N 
ATOM     21  C   UNL     1     -10.258  12.941  64.358  0.00  0.00    +0.109 C 
ATOM     22  C   UNL     1     -11.192  12.093  63.635  0.00  0.00    +0.061 C 
ATOM     23  C   UNL     1     -12.463  12.913  63.515  0.00  0.00    +0.012 C 
ATOM     24  C   UNL     1     -12.852  13.390  64.875  0.00  0.00    +0.061 C 
ATOM     25  C   UNL     1     -11.723  14.035  65.669  0.00  0.00    +0.109 C 
ATOM     26  C   UNL     1      -9.331  13.594  66.087  0.00  0.00    +0.170 C 
ENDBRANCH  19  20
BRANCH  11  27
ATOM     27  N   UNL     1      -9.911   4.918  71.929  0.00  0.00    +0.300 N 
ATOM     28  C   UNL     1      -9.993   3.619  72.449  0.00  0.00    +0.109 C 
ATOM     29  C   UNL     1     -10.921   3.615  73.646  0.00  0.00    +0.061 C 
ATOM     30  C   UNL     1     -10.334   4.675  74.572  0.00  0.00    +0.012 C 
ATOM     31  C   UNL     1     -10.504   6.042  73.920  0.00  0.00    +0.061 C 
ATOM     32  C   UNL     1     -10.945   5.787  72.493  0.00  0.00    +0.109 C 
ATOM     33  C   UNL     1      -8.696   5.609  72.271  0.00  0.00    +0.170 C 
ENDBRANCH  11  27
BRANCH   1  34
ATOM     34  O   UNL     1     -10.355  13.081  68.136  0.00  0.00    -0.446 OA
BRANCH  34  36
ATOM     35  C   UNL     1     -11.811  14.516  69.525  0.00  0.00    +0.121 C 
ATOM     36  C   UNL     1     -10.541  14.083  69.038  0.00  0.00    +0.318 C 
ATOM     37  O   UNL     1      -9.560  14.876  69.168  0.00  0.00    -0.250 OA
ENDBRANCH  34  36
ENDBRANCH   1  34
BRANCH  10  38
ATOM     38  O   UNL     1      -8.192   3.601  70.225  0.00  0.00    -0.446 OA
BRANCH  38  39
ATOM     39  C   UNL     1      -6.946   3.082  70.142  0.00  0.00    +0.318 C 
ATOM     40  O   UNL     1      -6.766   1.990  69.538  0.00  0.00    -0.250 OA
ATOM     41  C   UNL     1      -5.805   3.909  70.651  0.00  0.00    +0.121 C 
ENDBRANCH  38  39
ENDBRANCH  10  38
TORSDOF 6
ENDMDL
MODEL 5
REMARK VINA RESULT:      -6.3      2.683      3.799
REMARK  Name = 
REMARK  6 active torsions:
REMARK  status: ('A' for Active; 'I' for Inactive)
REMARK    1  A    between atoms: C_2  and  O_4
REMARK    2  A    between atoms: O_4  and  C_5
REMARK    3  A    between atoms: C_6  and  N_7
REMARK    4  A    between atoms: C_21  and  O_22
REMARK    5  A    between atoms: O_22  and  C_23
REMARK    6  A    between atoms: C_26  and  N_27
REMARK                            x       y       z     vdW  Elec       q    Type
REMARK                         _______ _______ _______ _____ _____    ______ ____
ROOT
ATOM      1  C   UNL     1     -10.059  13.126  65.805  0.00  0.00    +0.217 C 
ATOM      2  C   UNL     1      -9.993  11.597  66.334  0.00  0.00    +0.043 C 
ATOM      3  C   UNL     1      -9.084  11.811  67.640  0.00  0.00    +0.009 C 
ATOM      4  C   UNL     1      -9.599  10.377  68.343  0.00  0.00    +0.000 C 
ATOM      5  C   UNL     1      -8.529   9.524  67.358  0.00  0.00    +0.000 C 
ATOM      6  C   UNL     1      -9.581   9.353  66.136  0.00  0.00    +0.000 C 
ATOM      7  C   UNL     1      -8.880   8.107  68.052  0.00  0.00    +0.006 C 
ATOM      8  C   UNL     1      -7.564   8.168  69.008  0.00  0.00    +0.004 C 
ATOM      9  C   UNL     1      -7.828   6.825  69.873  0.00  0.00    +0.050 C 
ATOM     10  C   UNL     1      -8.765   5.856  68.974  0.00  0.00    +0.217 C 
ATOM     11  C   UNL     1      -7.739   5.907  67.599  0.00  0.00    +0.099 C 
ATOM     12  C   UNL     1      -8.308   9.121  70.112  0.00  0.00    +0.000 C 
ATOM     13  C   UNL     1     -10.111   8.084  68.772  0.00  0.00    +0.000 C 
ATOM     14  C   UNL     1      -8.616   7.137  66.987  0.00  0.00    +0.059 C 
ATOM     15  C   UNL     1      -8.488  10.469  69.500  0.00  0.00    +0.000 C 
ATOM     16  C   UNL     1     -10.295  12.751  68.197  0.00  0.00    +0.059 C 
ATOM     17  C   UNL     1     -11.313  11.072  66.702  0.00  0.00    +0.004 C 
ATOM     18  C   UNL     1      -9.329  10.690  65.411  0.00  0.00    +0.004 C 
ATOM     19  C   UNL     1      -9.449  13.799  67.268  0.00  0.00    +0.099 C 
ENDROOT
BRANCH  19  20
ATOM     20  N   UNL     1     -10.418  15.000  67.403  0.00  0.00    +0.300 N 
ATOM     21  C   UNL     1      -9.791  15.696  68.538  0.00  0.00    +0.109 C 
ATOM     22  C   UNL     1      -8.340  15.783  68.506  0.00  0.00    +0.061 C 
ATOM     23  C   UNL     1      -8.022  16.698  67.338  0.00  0.00    +0.012 C 
ATOM     24  C   UNL     1      -8.724  16.184  66.125  0.00  0.00    +0.061 C 
ATOM     25  C   UNL     1     -10.199  15.866  66.332  0.00  0.00    +0.109 C 
ATOM     26  C   UNL     1     -11.587  14.787  68.063  0.00  0.00    +0.170 C 
ENDBRANCH  19  20
BRANCH  11  27
ATOM     27  N   UNL     1      -8.518   4.831  66.791  0.00  0.00    +0.300 N 
ATOM     28  C   UNL     1      -8.015   3.538  66.995  0.00  0.00    +0.109 C 
ATOM     29  C   UNL     1      -7.829   2.856  65.657  0.00  0.00    +0.061 C 
ATOM     30  C   UNL     1      -9.202   2.949  64.999  0.00  0.00    +0.012 C 
ATOM     31  C   UNL     1      -9.493   4.411  64.682  0.00  0.00    +0.061 C 
ATOM     32  C   UNL     1      -8.427   5.226  65.385  0.00  0.00    +0.109 C 
ATOM     33  C   UNL     1      -9.924   4.963  67.066  0.00  0.00    +0.170 C 
ENDBRANCH  11  27
BRANCH   1  34
ATOM     34  O   UNL     1     -11.535  13.300  66.150  0.00  0.00    -0.446 OA
BRANCH  34  36
ATOM     35  C   UNL     1     -12.135  13.087  63.762  0.00  0.00    +0.121 C 
ATOM     36  C   UNL     1     -12.432  13.374  65.129  0.00  0.00    +0.318 C 
ATOM     37  O   UNL     1     -13.468  14.063  65.375  0.00  0.00    -0.250 OA
ENDBRANCH  34  36
ENDBRANCH   1  34
BRANCH  10  38
ATOM     38  O   UNL     1      -8.103   4.588  69.505  0.00  0.00    -0.446 OA
BRANCH  38  39
ATOM     39  C   UNL     1      -8.434   4.092  70.718  0.00  0.00    +0.318 C 
ATOM     40  O   UNL     1      -7.524   3.724  71.509  0.00  0.00    -0.250 OA
ATOM     41  C   UNL     1      -9.876   4.136  71.125  0.00  0.00    +0.121 C 
ENDBRANCH  38  39
ENDBRANCH  10  38
TORSDOF 6
ENDMDL
MODEL 6
REMARK VINA RESULT:      -6.3      2.795      8.868
REMARK  Name = 
REMARK  6 active torsions:
REMARK  status: ('A' for Active; 'I' for Inactive)
REMARK    1  A    between atoms: C_2  and  O_4
REMARK    2  A    between atoms: O_4  and  C_5
REMARK    3  A    between atoms: C_6  and  N_7
REMARK    4  A    between atoms: C_21  and  O_22
REMARK    5  A    between atoms: O_22  and  C_23
REMARK    6  A    between atoms: C_26  and  N_27
REMARK                            x       y       z     vdW  Elec       q    Type
REMARK                         _______ _______ _______ _____ _____    ______ ____
ROOT
ATOM      1  C   UNL     1      -8.243   5.325  67.390  0.00  0.00    +0.217 C 
ATOM      2  C   UNL     1      -8.615   6.896  67.505  0.00  0.00    +0.043 C 
ATOM      3  C   UNL     1      -9.476   6.863  68.861  0.00  0.00    +0.009 C 
ATOM      4  C   UNL     1      -9.260   8.503  69.143  0.00  0.00    +0.000 C 
ATOM      5  C   UNL     1     -10.469   8.843  68.019  0.00  0.00    +0.000 C 
ATOM      6  C   UNL     1      -9.460   8.885  66.749  0.00  0.00    +0.000 C 
ATOM      7  C   UNL     1     -10.411  10.433  68.304  0.00  0.00    +0.006 C 
ATOM      8  C   UNL     1     -11.698  10.373  69.299  0.00  0.00    +0.004 C 
ATOM      9  C   UNL     1     -11.712  11.921  69.773  0.00  0.00    +0.050 C 
ATOM     10  C   UNL     1     -10.977  12.781  68.613  0.00  0.00    +0.217 C 
ATOM     11  C   UNL     1     -11.959  12.173  67.345  0.00  0.00    +0.099 C 
ATOM     12  C   UNL     1     -10.790   9.907  70.580  0.00  0.00    +0.000 C 
ATOM     13  C   UNL     1      -9.215  10.881  68.940  0.00  0.00    +0.000 C 
ATOM     14  C   UNL     1     -10.852  11.018  67.036  0.00  0.00    +0.059 C 
ATOM     15  C   UNL     1     -10.342   8.506  70.332  0.00  0.00    +0.000 C 
ATOM     16  C   UNL     1      -8.108   6.354  69.590  0.00  0.00    +0.059 C 
ATOM     17  C   UNL     1      -7.429   7.744  67.667  0.00  0.00    +0.004 C 
ATOM     18  C   UNL     1      -9.437   7.383  66.408  0.00  0.00    +0.004 C 
ATOM     19  C   UNL     1      -8.721   4.956  69.003  0.00  0.00    +0.099 C 
ENDROOT
BRANCH  19  20
ATOM     20  N   UNL     1      -7.536   4.043  69.404  0.00  0.00    +0.300 N 
ATOM     21  C   UNL     1      -8.032   3.549  70.698  0.00  0.00    +0.109 C 
ATOM     22  C   UNL     1      -9.436   3.173  70.738  0.00  0.00    +0.061 C 
ATOM     23  C   UNL     1      -9.545   1.948  69.850  0.00  0.00    +0.012 C 
ATOM     24  C   UNL     1      -8.939   2.265  68.523  0.00  0.00    +0.061 C 
ATOM     25  C   UNL     1      -7.560   2.908  68.593  0.00  0.00    +0.109 C 
ATOM     26  C   UNL     1      -6.445   4.643  69.948  0.00  0.00    +0.170 C 
ENDBRANCH  19  20
BRANCH  11  27
ATOM     27  N   UNL     1     -11.401  13.127  66.252  0.00  0.00    +0.300 N 
ATOM     28  C   UNL     1     -10.244  13.800  66.668  0.00  0.00    +0.109 C 
ATOM     29  C   UNL     1     -10.383  15.275  66.355  0.00  0.00    +0.061 C 
ATOM     30  C   UNL     1     -10.683  15.311  64.860  0.00  0.00    +0.012 C 
ATOM     31  C   UNL     1     -12.062  14.706  64.625  0.00  0.00    +0.061 C 
ATOM     32  C   UNL     1     -12.480  14.063  65.932  0.00  0.00    +0.109 C 
ATOM     33  C   UNL     1     -11.243  12.394  65.025  0.00  0.00    +0.170 C 
ENDBRANCH  11  27
BRANCH   1  34
ATOM     34  O   UNL     1      -6.765   5.536  67.704  0.00  0.00    -0.446 OA
BRANCH  34  36
ATOM     35  C   UNL     1      -6.132   4.758  65.446  0.00  0.00    +0.121 C 
ATOM     36  C   UNL     1      -5.866   5.400  66.692  0.00  0.00    +0.318 C 
ATOM     37  O   UNL     1      -4.653   5.547  67.031  0.00  0.00    -0.250 OA
ENDBRANCH  34  36
ENDBRANCH   1  34
BRANCH  10  38
ATOM     38  O   UNL     1     -11.881  13.992  68.824  0.00  0.00    -0.446 OA
BRANCH  38  39
ATOM     39  C   UNL     1     -11.642  14.865  69.829  0.00  0.00    +0.318 C 
ATOM     40  O   UNL     1     -10.480  15.327  69.987  0.00  0.00    -0.250 OA
ATOM     41  C   UNL     1     -12.813  15.357  70.625  0.00  0.00    +0.121 C 
ENDBRANCH  38  39
ENDBRANCH  10  38
TORSDOF 6
ENDMDL
MODEL 7
REMARK VINA RESULT:      -6.2      3.926      8.674
REMARK  Name = 
REMARK  6 active torsions:
REMARK  status: ('A' for Active; 'I' for Inactive)
REMARK    1  A    between atoms: C_2  and  O_4
REMARK    2  A    between atoms: O_4  and  C_5
REMARK    3  A    between atoms: C_6  and  N_7
REMARK    4  A    between atoms: C_21  and  O_22
REMARK    5  A    between atoms: O_22  and  C_23
REMARK    6  A    between atoms: C_26  and  N_27
REMARK                            x       y       z     vdW  Elec       q    Type
REMARK                         _______ _______ _______ _____ _____    ______ ____
ROOT
ATOM      1  C   UNL     1      -7.585   7.817  65.402  0.00  0.00    +0.217 C 
ATOM      2  C   UNL     1      -8.024   9.188  66.144  0.00  0.00    +0.043 C 
ATOM      3  C   UNL     1      -9.488   8.757  66.645  0.00  0.00    +0.009 C 
ATOM      4  C   UNL     1      -9.533   9.950  67.824  0.00  0.00    +0.000 C 
ATOM      5  C   UNL     1      -9.934  11.084  66.642  0.00  0.00    +0.000 C 
ATOM      6  C   UNL     1      -8.395  11.443  66.276  0.00  0.00    +0.000 C 
ATOM      7  C   UNL     1     -10.110  12.276  67.719  0.00  0.00    +0.006 C 
ATOM      8  C   UNL     1     -11.728  12.104  67.752  0.00  0.00    +0.004 C 
ATOM      9  C   UNL     1     -12.066  13.193  68.902  0.00  0.00    +0.050 C 
ATOM     10  C   UNL     1     -10.850  14.264  68.917  0.00  0.00    +0.217 C 
ATOM     11  C   UNL     1     -10.944  14.604  67.237  0.00  0.00    +0.099 C 
ATOM     12  C   UNL     1     -11.658  10.872  68.827  0.00  0.00    +0.000 C 
ATOM     13  C   UNL     1      -9.483  12.040  68.979  0.00  0.00    +0.000 C 
ATOM     14  C   UNL     1      -9.802  13.479  66.942  0.00  0.00    +0.059 C 
ATOM     15  C   UNL     1     -11.089   9.687  68.123  0.00  0.00    +0.000 C 
ATOM     16  C   UNL     1      -8.729   7.623  67.540  0.00  0.00    +0.059 C 
ATOM     17  C   UNL     1      -7.161   9.512  67.285  0.00  0.00    +0.004 C 
ATOM     18  C   UNL     1      -8.124  10.329  65.247  0.00  0.00    +0.004 C 
ATOM     19  C   UNL     1      -8.858   6.881  66.088  0.00  0.00    +0.099 C 
ENDROOT
BRANCH  19  20
ATOM     20  N   UNL     1      -8.053   5.609  66.451  0.00  0.00    +0.300 N 
ATOM     21  C   UNL     1      -9.151   4.745  66.913  0.00  0.00    +0.109 C 
ATOM     22  C   UNL     1     -10.363   4.776  66.110  0.00  0.00    +0.061 C 
ATOM     23  C   UNL     1      -9.978   4.144  64.786  0.00  0.00    +0.012 C 
ATOM     24  C   UNL     1      -8.767   4.840  64.259  0.00  0.00    +0.061 C 
ATOM     25  C   UNL     1      -7.637   4.998  65.268  0.00  0.00    +0.109 C 
ATOM     26  C   UNL     1      -7.416   5.595  67.652  0.00  0.00    +0.170 C 
ENDBRANCH  19  20
BRANCH  11  27
ATOM     27  N   UNL     1      -9.916  15.770  67.263  0.00  0.00    +0.300 N 
ATOM     28  C   UNL     1     -10.528  17.022  67.415  0.00  0.00    +0.109 C 
ATOM     29  C   UNL     1      -9.966  17.982  66.388  0.00  0.00    +0.061 C 
ATOM     30  C   UNL     1      -8.460  17.937  66.623  0.00  0.00    +0.012 C 
ATOM     31  C   UNL     1      -7.946  16.557  66.225  0.00  0.00    +0.061 C 
ATOM     32  C   UNL     1      -9.168  15.688  66.008  0.00  0.00    +0.109 C 
ATOM     33  C   UNL     1      -8.909  15.487  68.251  0.00  0.00    +0.170 C 
ENDBRANCH  11  27
BRANCH   1  34
ATOM     34  O   UNL     1      -6.536   7.455  66.448  0.00  0.00    -0.446 OA
BRANCH  34  36
ATOM     35  C   UNL     1      -4.124   7.452  66.987  0.00  0.00    +0.121 C 
ATOM     36  C   UNL     1      -5.226   7.467  66.080  0.00  0.00    +0.318 C 
ATOM     37  O   UNL     1      -5.007   7.861  64.895  0.00  0.00    -0.250 OA
ENDBRANCH  34  36
ENDBRANCH   1  34
BRANCH  10  38
ATOM     38  O   UNL     1     -11.771  15.427  69.272  0.00  0.00    -0.446 OA
BRANCH  38  39
ATOM     39  C   UNL     1     -12.216  15.592  70.538  0.00  0.00    +0.318 C 
ATOM     40  O   UNL     1     -13.429  15.871  70.739  0.00  0.00    -0.250 OA
ATOM     41  C   UNL     1     -11.270  15.293  71.661  0.00  0.00    +0.121 C 
ENDBRANCH  38  39
ENDBRANCH  10  38
TORSDOF 6
ENDMDL
MODEL 8
REMARK VINA RESULT:      -6.2      2.032      9.104
REMARK  Name = 
REMARK  6 active torsions:
REMARK  status: ('A' for Active; 'I' for Inactive)
REMARK    1  A    between atoms: C_2  and  O_4
REMARK    2  A    between atoms: O_4  and  C_5
REMARK    3  A    between atoms: C_6  and  N_7
REMARK    4  A    between atoms: C_21  and  O_22
REMARK    5  A    between atoms: O_22  and  C_23
REMARK    6  A    between atoms: C_26  and  N_27
REMARK                            x       y       z     vdW  Elec       q    Type
REMARK                         _______ _______ _______ _____ _____    ______ ____
ROOT
ATOM      1  C   UNL     1      -9.141   4.105  70.134  0.00  0.00    +0.217 C 
ATOM      2  C   UNL     1      -9.259   5.663  69.709  0.00  0.00    +0.043 C 
ATOM      3  C   UNL     1     -10.236   6.179  70.875  0.00  0.00    +0.009 C 
ATOM      4  C   UNL     1      -9.782   7.781  70.668  0.00  0.00    +0.000 C 
ATOM      5  C   UNL     1     -10.809   7.887  69.336  0.00  0.00    +0.000 C 
ATOM      6  C   UNL     1      -9.694   7.388  68.269  0.00  0.00    +0.000 C 
ATOM      7  C   UNL     1     -10.519   9.463  69.125  0.00  0.00    +0.006 C 
ATOM      8  C   UNL     1     -11.885   9.891  69.900  0.00  0.00    +0.004 C 
ATOM      9  C   UNL     1     -11.689  11.498  69.869  0.00  0.00    +0.050 C 
ATOM     10  C   UNL     1     -10.719  11.836  68.616  0.00  0.00    +0.217 C 
ATOM     11  C   UNL     1     -11.666  10.978  67.471  0.00  0.00    +0.099 C 
ATOM     12  C   UNL     1     -11.188   9.755  71.375  0.00  0.00    +0.000 C 
ATOM     13  C   UNL     1      -9.330   9.940  69.752  0.00  0.00    +0.000 C 
ATOM     14  C   UNL     1     -10.739   9.656  67.689  0.00  0.00    +0.059 C 
ATOM     15  C   UNL     1     -10.954   8.305  71.634  0.00  0.00    +0.000 C 
ATOM     16  C   UNL     1      -9.043   5.767  71.909  0.00  0.00    +0.059 C 
ATOM     17  C   UNL     1      -7.971   6.361  69.767  0.00  0.00    +0.004 C 
ATOM     18  C   UNL     1      -9.885   5.866  68.412  0.00  0.00    +0.004 C 
ATOM     19  C   UNL     1      -9.820   4.342  71.700  0.00  0.00    +0.099 C 
ENDROOT
BRANCH  19  20
ATOM     20  N   UNL     1      -8.842   3.468  72.522  0.00  0.00    +0.300 N 
ATOM     21  C   UNL     1      -9.490   3.548  73.841  0.00  0.00    +0.109 C 
ATOM     22  C   UNL     1     -10.939   3.424  73.845  0.00  0.00    +0.061 C 
ATOM     23  C   UNL     1     -11.217   1.993  73.424  0.00  0.00    +0.012 C 
ATOM     24  C   UNL     1     -10.491   1.722  72.148  0.00  0.00    +0.061 C 
ATOM     25  C   UNL     1      -9.025   2.135  72.152  0.00  0.00    +0.109 C 
ATOM     26  C   UNL     1      -7.693   4.053  72.951  0.00  0.00    +0.170 C 
ENDBRANCH  19  20
BRANCH  11  27
ATOM     27  N   UNL     1     -10.861  11.448  66.227  0.00  0.00    +0.300 N 
ATOM     28  C   UNL     1     -11.550  12.407  65.472  0.00  0.00    +0.109 C 
ATOM     29  C   UNL     1     -11.508  12.019  64.010  0.00  0.00    +0.061 C 
ATOM     30  C   UNL     1     -10.020  11.868  63.709  0.00  0.00    +0.012 C 
ATOM     31  C   UNL     1      -9.488  10.661  64.474  0.00  0.00    +0.061 C 
ATOM     32  C   UNL     1     -10.580  10.247  65.440  0.00  0.00    +0.109 C 
ATOM     33  C   UNL     1      -9.549  11.865  66.647  0.00  0.00    +0.170 C 
ENDBRANCH  11  27
BRANCH   1  34
ATOM     34  O   UNL     1      -7.684   4.219  70.572  0.00  0.00    -0.446 OA
BRANCH  34  36
ATOM     35  C   UNL     1      -5.333   3.784  69.948  0.00  0.00    +0.121 C 
ATOM     36  C   UNL     1      -6.739   3.561  69.847  0.00  0.00    +0.318 C 
ATOM     37  O   UNL     1      -7.171   2.987  68.802  0.00  0.00    -0.250 OA
ENDBRANCH  34  36
ENDBRANCH   1  34
BRANCH  10  38
ATOM     38  O   UNL     1     -11.429  13.153  68.317  0.00  0.00    -0.446 OA
BRANCH  38  39
ATOM     39  C   UNL     1     -11.026  14.303  68.903  0.00  0.00    +0.318 C 
ATOM     40  O   UNL     1      -9.835  14.690  68.760  0.00  0.00    -0.250 OA
ATOM     41  C   UNL     1     -12.063  15.145  69.583  0.00  0.00    +0.121 C 
ENDBRANCH  38  39
ENDBRANCH  10  38
TORSDOF 6
ENDMDL
MODEL 9
REMARK VINA RESULT:      -6.1      2.076      9.519
REMARK  Name = 
REMARK  6 active torsions:
REMARK  status: ('A' for Active; 'I' for Inactive)
REMARK    1  A    between atoms: C_2  and  O_4
REMARK    2  A    between atoms: O_4  and  C_5
REMARK    3  A    between atoms: C_6  and  N_7
REMARK    4  A    between atoms: C_21  and  O_22
REMARK    5  A    between atoms: O_22  and  C_23
REMARK    6  A    between atoms: C_26  and  N_27
REMARK                            x       y       z     vdW  Elec       q    Type
REMARK                         _______ _______ _______ _____ _____    ______ ____
ROOT
ATOM      1  C   UNL     1      -8.236   7.294  70.339  0.00  0.00    +0.217 C 
ATOM      2  C   UNL     1      -8.751   8.695  69.711  0.00  0.00    +0.043 C 
ATOM      3  C   UNL     1      -8.876   8.261  68.170  0.00  0.00    +0.009 C 
ATOM      4  C   UNL     1      -9.926   9.519  67.808  0.00  0.00    +0.000 C 
ATOM      5  C   UNL     1      -8.613  10.573  67.726  0.00  0.00    +0.000 C 
ATOM      6  C   UNL     1      -8.642  10.946  69.304  0.00  0.00    +0.000 C 
ATOM      7  C   UNL     1      -9.531  11.822  67.264  0.00  0.00    +0.006 C 
ATOM      8  C   UNL     1      -9.148  11.616  65.696  0.00  0.00    +0.004 C 
ATOM      9  C   UNL     1     -10.100  12.761  65.060  0.00  0.00    +0.050 C 
ATOM     10  C   UNL     1     -10.368  13.858  66.223  0.00  0.00    +0.217 C 
ATOM     11  C   UNL     1      -8.705  14.099  66.572  0.00  0.00    +0.099 C 
ATOM     12  C   UNL     1     -10.277  10.449  65.488  0.00  0.00    +0.000 C 
ATOM     13  C   UNL     1     -10.923  11.672  67.539  0.00  0.00    +0.000 C 
ATOM     14  C   UNL     1      -8.789  12.984  67.759  0.00  0.00    +0.059 C 
ATOM     15  C   UNL     1      -9.821   9.238  66.230  0.00  0.00    +0.000 C 
ATOM     16  C   UNL     1     -10.007   7.198  68.674  0.00  0.00    +0.059 C 
ATOM     17  C   UNL     1     -10.056   9.103  70.241  0.00  0.00    +0.004 C 
ATOM     18  C   UNL     1      -7.791   9.780  69.844  0.00  0.00    +0.004 C 
ATOM     19  C   UNL     1      -8.620   6.371  68.936  0.00  0.00    +0.099 C 
ENDROOT
BRANCH  19  20
ATOM     20  N   UNL     1      -9.259   5.140  69.626  0.00  0.00    +0.300 N 
ATOM     21  C   UNL     1      -9.465   4.279  68.451  0.00  0.00    +0.109 C 
ATOM     22  C   UNL     1      -8.370   4.236  67.495  0.00  0.00    +0.061 C 
ATOM     23  C   UNL     1      -7.234   3.540  68.222  0.00  0.00    +0.012 C 
ATOM     24  C   UNL     1      -7.006   4.233  69.525  0.00  0.00    +0.061 C 
ATOM     25  C   UNL     1      -8.267   4.473  70.345  0.00  0.00    +0.109 C 
ATOM     26  C   UNL     1     -10.584   5.208  69.920  0.00  0.00    +0.170 C 
ENDBRANCH  19  20
BRANCH  11  27
ATOM     27  N   UNL     1      -8.928  15.287  67.550  0.00  0.00    +0.300 N 
ATOM     28  C   UNL     1     -10.210  15.281  68.119  0.00  0.00    +0.109 C 
ATOM     29  C   UNL     1     -10.814  16.665  68.008  0.00  0.00    +0.061 C 
ATOM     30  C   UNL     1      -9.785  17.572  68.674  0.00  0.00    +0.012 C 
ATOM     31  C   UNL     1      -8.527  17.599  67.814  0.00  0.00    +0.061 C 
ATOM     32  C   UNL     1      -8.691  16.506  66.777  0.00  0.00    +0.109 C 
ATOM     33  C   UNL     1      -7.860  15.310  68.513  0.00  0.00    +0.170 C 
ENDBRANCH  11  27
BRANCH   1  34
ATOM     34  O   UNL     1      -9.541   7.016  71.078  0.00  0.00    -0.446 OA
BRANCH  34  36
ATOM     35  C   UNL     1     -10.694   7.226  73.253  0.00  0.00    +0.121 C 
ATOM     36  C   UNL     1      -9.534   7.058  72.438  0.00  0.00    +0.318 C 
ATOM     37  O   UNL     1      -8.406   7.306  72.960  0.00  0.00    -0.250 OA
ENDBRANCH  34  36
ENDBRANCH   1  34
BRANCH  10  38
ATOM     38  O   UNL     1     -10.397  15.019  65.233  0.00  0.00    -0.446 OA
BRANCH  38  39
ATOM     39  C   UNL     1     -11.557  15.401  64.652  0.00  0.00    +0.318 C 
ATOM     40  O   UNL     1     -11.576  16.426  63.918  0.00  0.00    -0.250 OA
ATOM     41  C   UNL     1     -12.745  14.499  64.795  0.00  0.00    +0.121 C 
ENDBRANCH  38  39
ENDBRANCH  10  38
TORSDOF 6
ENDMDL
