MODEL 1
REMARK VINA RESULT:      -4.3      0.000      0.000
REMARK  Name = 
REMARK  0 active torsions:
REMARK  status: ('A' for Active; 'I' for Inactive)
REMARK                            x       y       z     vdW  Elec       q    Type
REMARK                         _______ _______ _______ _____ _____    ______ ____
ROOT
ATOM      1  O   UNL     1     -12.495  16.336  74.753  0.00  0.00    -0.286 OA
ATOM      2  C   UNL     1     -12.734  15.695  73.539  0.00  0.00    +0.199 A 
ATOM      3  C   UNL     1     -13.979  15.887  72.954  0.00  0.00    +0.084 A 
ATOM      4  C   UNL     1     -14.226  15.392  71.679  0.00  0.00    +0.199 A 
ATOM      5  O   UNL     1     -15.418  14.725  71.377  0.00  0.00    -0.286 OA
ATOM      6  C   UNL     1     -13.129  15.045  70.901  0.00  0.00    +0.042 A 
ATOM      7  C   UNL     1     -11.866  15.415  71.349  0.00  0.00    +0.007 A 
ATOM      8  C   UNL     1     -11.665  15.338  72.725  0.00  0.00    +0.042 A 
ENDROOT
TORSDOF 0
ENDMDL
MODEL 2
REMARK VINA RESULT:      -4.2      1.799      2.218
REMARK  Name = 
REMARK  0 active torsions:
REMARK  status: ('A' for Active; 'I' for Inactive)
REMARK                            x       y       z     vdW  Elec       q    Type
REMARK                         _______ _______ _______ _____ _____    ______ ____
ROOT
ATOM      1  O   UNL     1     -12.748  16.294  74.254  0.00  0.00    -0.286 OA
ATOM      2  C   UNL     1     -12.883  15.757  72.975  0.00  0.00    +0.199 A 
ATOM      3  C   UNL     1     -11.974  16.174  72.012  0.00  0.00    +0.084 A 
ATOM      4  C   UNL     1     -11.969  15.570  70.760  0.00  0.00    +0.199 A 
ATOM      5  O   UNL     1     -11.873  16.326  69.589  0.00  0.00    -0.286 OA
ATOM      6  C   UNL     1     -12.615  14.346  70.635  0.00  0.00    +0.042 A 
ATOM      7  C   UNL     1     -13.030  13.704  71.797  0.00  0.00    +0.007 A 
ATOM      8  C   UNL     1     -13.516  14.531  72.806  0.00  0.00    +0.042 A 
ENDROOT
TORSDOF 0
ENDMDL
MODEL 3
REMARK VINA RESULT:      -4.2      8.019      8.468
REMARK  Name = 
REMARK  0 active torsions:
REMARK  status: ('A' for Active; 'I' for Inactive)
REMARK                            x       y       z     vdW  Elec       q    Type
REMARK                         _______ _______ _______ _____ _____    ______ ____
ROOT
ATOM      1  O   UNL     1     -13.073  12.399  64.163  0.00  0.00    -0.286 OA
ATOM      2  C   UNL     1     -12.013  13.290  64.320  0.00  0.00    +0.199 A 
ATOM      3  C   UNL     1     -12.332  14.627  64.521  0.00  0.00    +0.084 A 
ATOM      4  C   UNL     1     -11.327  15.538  64.825  0.00  0.00    +0.199 A 
ATOM      5  O   UNL     1     -11.271  16.790  64.206  0.00  0.00    -0.286 OA
ATOM      6  C   UNL     1     -10.112  15.030  65.268  0.00  0.00    +0.042 A 
ATOM      7  C   UNL     1     -10.046  13.678  65.588  0.00  0.00    +0.007 A 
ATOM      8  C   UNL     1     -10.782  12.825  64.770  0.00  0.00    +0.042 A 
ENDROOT
TORSDOF 0
ENDMDL
MODEL 4
REMARK VINA RESULT:      -4.1      1.572      1.626
REMARK  Name = 
REMARK  0 active torsions:
REMARK  status: ('A' for Active; 'I' for Inactive)
REMARK                            x       y       z     vdW  Elec       q    Type
REMARK                         _______ _______ _______ _____ _____    ______ ____
ROOT
ATOM      1  O   UNL     1     -12.809  16.341  74.201  0.00  0.00    -0.286 OA
ATOM      2  C   UNL     1     -12.549  15.550  73.084  0.00  0.00    +0.199 A 
ATOM      3  C   UNL     1     -13.341  14.423  72.905  0.00  0.00    +0.084 A 
ATOM      4  C   UNL     1     -13.225  13.675  71.739  0.00  0.00    +0.199 A 
ATOM      5  O   UNL     1     -13.178  12.278  71.774  0.00  0.00    -0.286 OA
ATOM      6  C   UNL     1     -12.595  14.272  70.654  0.00  0.00    +0.042 A 
ATOM      7  C   UNL     1     -12.321  15.633  70.724  0.00  0.00    +0.007 A 
ATOM      8  C   UNL     1     -11.928  16.109  71.972  0.00  0.00    +0.042 A 
ENDROOT
TORSDOF 0
ENDMDL
MODEL 5
REMARK VINA RESULT:      -4.1      1.931      2.728
REMARK  Name = 
REMARK  0 active torsions:
REMARK  status: ('A' for Active; 'I' for Inactive)
REMARK                            x       y       z     vdW  Elec       q    Type
REMARK                         _______ _______ _______ _____ _____    ______ ____
ROOT
ATOM      1  O   UNL     1     -14.432  13.188  72.594  0.00  0.00    -0.286 OA
ATOM      2  C   UNL     1     -13.406  14.098  72.348  0.00  0.00    +0.199 A 
ATOM      3  C   UNL     1     -13.400  14.729  71.111  0.00  0.00    +0.084 A 
ATOM      4  C   UNL     1     -12.488  15.747  70.859  0.00  0.00    +0.199 A 
ATOM      5  O   UNL     1     -11.781  15.808  69.655  0.00  0.00    -0.286 OA
ATOM      6  C   UNL     1     -11.867  16.338  71.953  0.00  0.00    +0.042 A 
ATOM      7  C   UNL     1     -12.349  16.034  73.222  0.00  0.00    +0.007 A 
ATOM      8  C   UNL     1     -12.763  14.718  73.413  0.00  0.00    +0.042 A 
ENDROOT
TORSDOF 0
ENDMDL
MODEL 6
REMARK VINA RESULT:      -4.1      7.672      7.970
REMARK  Name = 
REMARK  0 active torsions:
REMARK  status: ('A' for Active; 'I' for Inactive)
REMARK                            x       y       z     vdW  Elec       q    Type
REMARK                         _______ _______ _______ _____ _____    ______ ____
ROOT
ATOM      1  O   UNL     1     -11.299  16.858  64.226  0.00  0.00    -0.286 OA
ATOM      2  C   UNL     1     -11.331  15.609  64.843  0.00  0.00    +0.199 A 
ATOM      3  C   UNL     1     -12.070  14.611  64.221  0.00  0.00    +0.084 A 
ATOM      4  C   UNL     1     -12.024  13.312  64.710  0.00  0.00    +0.199 A 
ATOM      5  O   UNL     1     -13.187  12.548  64.854  0.00  0.00    -0.286 OA
ATOM      6  C   UNL     1     -10.979  12.984  65.566  0.00  0.00    +0.042 A 
ATOM      7  C   UNL     1      -9.936  13.893  65.703  0.00  0.00    +0.007 A 
ATOM      8  C   UNL     1     -10.301  15.238  65.700  0.00  0.00    +0.042 A 
ENDROOT
TORSDOF 0
ENDMDL
MODEL 7
REMARK VINA RESULT:      -4.0      1.446      2.917
REMARK  Name = 
REMARK  0 active torsions:
REMARK  status: ('A' for Active; 'I' for Inactive)
REMARK                            x       y       z     vdW  Elec       q    Type
REMARK                         _______ _______ _______ _____ _____    ______ ____
ROOT
ATOM      1  O   UNL     1     -13.576  12.570  72.142  0.00  0.00    -0.286 OA
ATOM      2  C   UNL     1     -13.231  13.920  72.144  0.00  0.00    +0.199 A 
ATOM      3  C   UNL     1     -12.794  14.463  73.346  0.00  0.00    +0.084 A 
ATOM      4  C   UNL     1     -12.302  15.762  73.378  0.00  0.00    +0.199 A 
ATOM      5  O   UNL     1     -12.677  16.655  74.386  0.00  0.00    -0.286 OA
ATOM      6  C   UNL     1     -11.930  16.338  72.170  0.00  0.00    +0.042 A 
ATOM      7  C   UNL     1     -11.864  15.519  71.048  0.00  0.00    +0.007 A 
ATOM      8  C   UNL     1     -12.845  14.534  70.958  0.00  0.00    +0.042 A 
ENDROOT
TORSDOF 0
ENDMDL
MODEL 8
REMARK VINA RESULT:      -4.0      1.758      2.475
REMARK  Name = 
REMARK  0 active torsions:
REMARK  status: ('A' for Active; 'I' for Inactive)
REMARK                            x       y       z     vdW  Elec       q    Type
REMARK                         _______ _______ _______ _____ _____    ______ ____
ROOT
ATOM      1  O   UNL     1     -10.904  15.533  70.140  0.00  0.00    -0.286 OA
ATOM      2  C   UNL     1     -11.973  15.806  70.990  0.00  0.00    +0.199 A 
ATOM      3  C   UNL     1     -13.161  15.124  70.759  0.00  0.00    +0.084 A 
ATOM      4  C   UNL     1     -14.214  15.247  71.656  0.00  0.00    +0.199 A 
ATOM      5  O   UNL     1     -15.527  15.436  71.213  0.00  0.00    -0.286 OA
ATOM      6  C   UNL     1     -13.927  15.749  72.919  0.00  0.00    +0.042 A 
ATOM      7  C   UNL     1     -12.591  15.887  73.280  0.00  0.00    +0.007 A 
ATOM      8  C   UNL     1     -11.730  16.302  72.266  0.00  0.00    +0.042 A 
ENDROOT
TORSDOF 0
ENDMDL
MODEL 9
REMARK VINA RESULT:      -4.0      1.790      3.069
REMARK  Name = 
REMARK  0 active torsions:
REMARK  status: ('A' for Active; 'I' for Inactive)
REMARK                            x       y       z     vdW  Elec       q    Type
REMARK                         _______ _______ _______ _____ _____    ______ ____
ROOT
ATOM      1  O   UNL     1     -10.767  15.559  70.234  0.00  0.00    -0.286 OA
ATOM      2  C   UNL     1     -11.770  15.321  71.172  0.00  0.00    +0.199 A 
ATOM      3  C   UNL     1     -11.811  16.153  72.283  0.00  0.00    +0.084 A 
ATOM      4  C   UNL     1     -12.869  16.057  73.178  0.00  0.00    +0.199 A 
ATOM      5  O   UNL     1     -12.654  16.063  74.560  0.00  0.00    -0.286 OA
ATOM      6  C   UNL     1     -14.015  15.397  72.751  0.00  0.00    +0.042 A 
ATOM      7  C   UNL     1     -14.118  15.073  71.402  0.00  0.00    +0.007 A 
ATOM      8  C   UNL     1     -12.937  14.671  70.784  0.00  0.00    +0.042 A 
ENDROOT
TORSDOF 0
ENDMDL
