MODEL 1
REMARK VINA RESULT:      -7.2      0.000      0.000
REMARK  Name = 
REMARK  2 active torsions:
REMARK  status: ('A' for Active; 'I' for Inactive)
REMARK    1  A    between atoms: C_21  and  C_23
REMARK    2  A    between atoms: C_23  and  C_25
REMARK                            x       y       z     vdW  Elec       q    Type
REMARK                         _______ _______ _______ _____ _____    ______ ____
ROOT
ATOM      1  C   UNL     1      -9.790  18.597  66.301  0.00  0.00    +0.003 C 
ATOM      2  C   UNL     1      -8.810  17.889  66.869  0.00  0.00    +0.035 C 
ATOM      3  C   UNL     1      -7.840  18.836  67.469  0.00  0.00    +0.180 C 
ATOM      4  O   UNL     1      -6.824  18.117  68.027  0.00  0.00    -0.218 OA
ATOM      5  C   UNL     1      -8.684  19.550  68.525  0.00  0.00    +0.038 C 
ATOM      6  C   UNL     1      -9.999  18.783  68.613  0.00  0.00    +0.003 C 
ATOM      7  C   UNL     1      -9.252  17.376  68.343  0.00  0.00    +0.003 C 
ATOM      8  C   UNL     1     -10.600  16.612  67.685  0.00  0.00    +0.003 C 
ATOM      9  C   UNL     1     -11.147  16.201  69.128  0.00  0.00    +0.004 C 
ATOM     10  C   UNL     1     -10.921  14.820  69.496  0.00  0.00    +0.022 C 
ATOM     11  C   UNL     1     -11.209  13.803  68.458  0.00  0.00    -0.038 C 
ATOM     12  C   UNL     1     -10.800  14.254  67.085  0.00  0.00    +0.036 C 
ATOM     13  C   UNL     1     -11.946  14.913  66.476  0.00  0.00    +0.009 C 
ATOM     14  C   UNL     1     -10.192  13.140  66.336  0.00  0.00    -0.020 C 
ATOM     15  C   UNL     1     -10.687  11.909  66.484  0.00  0.00    +0.038 C 
ATOM     16  C   UNL     1     -11.325  11.548  67.755  0.00  0.00    +0.195 C 
ATOM     17  O   UNL     1     -11.771  10.402  68.003  0.00  0.00    -0.287 OA
ATOM     18  C   UNL     1     -11.114  12.528  68.830  0.00  0.00    +0.034 C 
ATOM     19  C   UNL     1      -9.624  15.269  67.483  0.00  0.00    +0.038 C 
ATOM     20  C   UNL     1      -9.148  15.549  65.872  0.00  0.00    +0.153 C 
ATOM     21  O   UNL     1     -10.289  16.444  65.452  0.00  0.00    -0.223 OA
ATOM     22  C   UNL     1      -8.143  16.785  66.249  0.00  0.00    +0.036 C 
ENDROOT
BRANCH   3  23
ATOM     23  C   UNL     1      -7.321  19.916  66.631  0.00  0.00    +0.211 C 
ATOM     24  O   UNL     1      -7.256  21.024  67.166  0.00  0.00    -0.291 OA
BRANCH  23  25
ATOM     25  C   UNL     1      -6.106  19.573  65.816  0.00  0.00    +0.248 C 
ATOM     26  O   UNL     1      -6.406  19.220  64.519  0.00  0.00    -0.212 OA
ENDBRANCH  23  25
ENDBRANCH   3  23
TORSDOF 2
ENDMDL
MODEL 2
REMARK VINA RESULT:      -7.1      1.531      6.599
REMARK  Name = 
REMARK  2 active torsions:
REMARK  status: ('A' for Active; 'I' for Inactive)
REMARK    1  A    between atoms: C_21  and  C_23
REMARK    2  A    between atoms: C_23  and  C_25
REMARK                            x       y       z     vdW  Elec       q    Type
REMARK                         _______ _______ _______ _____ _____    ______ ____
ROOT
ATOM      1  C   UNL     1      -9.558  13.933  67.977  0.00  0.00    +0.003 C 
ATOM      2  C   UNL     1     -10.105  14.667  67.004  0.00  0.00    +0.035 C 
ATOM      3  C   UNL     1     -11.426  14.084  66.668  0.00  0.00    +0.180 C 
ATOM      4  O   UNL     1     -11.975  14.816  65.656  0.00  0.00    -0.218 OA
ATOM      5  C   UNL     1     -12.201  14.243  67.976  0.00  0.00    +0.038 C 
ATOM      6  C   UNL     1     -11.343  15.128  68.877  0.00  0.00    +0.003 C 
ATOM      7  C   UNL     1     -10.820  15.989  67.614  0.00  0.00    +0.003 C 
ATOM      8  C   UNL     1      -9.372  16.453  68.336  0.00  0.00    +0.003 C 
ATOM      9  C   UNL     1     -10.065  17.692  69.068  0.00  0.00    +0.004 C 
ATOM     10  C   UNL     1      -9.819  18.978  68.455  0.00  0.00    +0.022 C 
ATOM     11  C   UNL     1      -8.425  19.259  68.039  0.00  0.00    -0.038 C 
ATOM     12  C   UNL     1      -7.745  18.050  67.463  0.00  0.00    +0.036 C 
ATOM     13  C   UNL     1      -7.072  17.359  68.553  0.00  0.00    +0.009 C 
ATOM     14  C   UNL     1      -6.923  18.426  66.299  0.00  0.00    -0.020 C 
ATOM     15  C   UNL     1      -6.261  19.585  66.317  0.00  0.00    +0.038 C 
ATOM     16  C   UNL     1      -6.802  20.701  67.101  0.00  0.00    +0.195 C 
ATOM     17  O   UNL     1      -6.278  21.840  67.135  0.00  0.00    -0.287 OA
ATOM     18  C   UNL     1      -8.174  20.484  67.580  0.00  0.00    +0.034 C 
ATOM     19  C   UNL     1      -9.031  17.264  66.914  0.00  0.00    +0.038 C 
ATOM     20  C   UNL     1      -8.117  16.047  66.148  0.00  0.00    +0.153 C 
ATOM     21  O   UNL     1      -7.700  15.273  67.375  0.00  0.00    -0.223 OA
ATOM     22  C   UNL     1      -9.413  15.099  65.827  0.00  0.00    +0.036 C 
ENDROOT
BRANCH   3  23
ATOM     23  C   UNL     1     -11.495  12.652  66.380  0.00  0.00    +0.211 C 
ATOM     24  O   UNL     1     -12.130  11.974  67.189  0.00  0.00    -0.291 OA
BRANCH  23  25
ATOM     25  C   UNL     1     -11.779  12.296  64.947  0.00  0.00    +0.248 C 
ATOM     26  O   UNL     1     -13.123  12.264  64.654  0.00  0.00    -0.212 OA
ENDBRANCH  23  25
ENDBRANCH   3  23
TORSDOF 2
ENDMDL
MODEL 3
REMARK VINA RESULT:      -7.0      2.856      5.077
REMARK  Name = 
REMARK  2 active torsions:
REMARK  status: ('A' for Active; 'I' for Inactive)
REMARK    1  A    between atoms: C_21  and  C_23
REMARK    2  A    between atoms: C_23  and  C_25
REMARK                            x       y       z     vdW  Elec       q    Type
REMARK                         _______ _______ _______ _____ _____    ______ ____
ROOT
ATOM      1  C   UNL     1     -12.348  14.373  67.033  0.00  0.00    +0.003 C 
ATOM      2  C   UNL     1     -11.019  14.314  67.158  0.00  0.00    +0.035 C 
ATOM      3  C   UNL     1     -10.644  14.941  68.448  0.00  0.00    +0.180 C 
ATOM      4  O   UNL     1      -9.286  14.905  68.566  0.00  0.00    -0.218 OA
ATOM      5  C   UNL     1     -11.332  14.034  69.469  0.00  0.00    +0.038 C 
ATOM      6  C   UNL     1     -11.838  12.821  68.693  0.00  0.00    +0.003 C 
ATOM      7  C   UNL     1     -10.558  12.859  67.707  0.00  0.00    +0.003 C 
ATOM      8  C   UNL     1     -11.339  12.111  66.416  0.00  0.00    +0.003 C 
ATOM      9  C   UNL     1     -11.025  10.655  66.991  0.00  0.00    +0.004 C 
ATOM     10  C   UNL     1      -9.936   9.963  66.338  0.00  0.00    +0.022 C 
ATOM     11  C   UNL     1      -9.908  10.018  64.858  0.00  0.00    -0.038 C 
ATOM     12  C   UNL     1     -10.324  11.359  64.327  0.00  0.00    +0.036 C 
ATOM     13  C   UNL     1     -11.762  11.321  64.102  0.00  0.00    +0.009 C 
ATOM     14  C   UNL     1      -9.478  11.747  63.184  0.00  0.00    -0.020 C 
ATOM     15  C   UNL     1      -9.084  10.810  62.319  0.00  0.00    +0.038 C 
ATOM     16  C   UNL     1      -8.925   9.430  62.790  0.00  0.00    +0.195 C 
ATOM     17  O   UNL     1      -8.511   8.495  62.062  0.00  0.00    -0.287 OA
ATOM     18  C   UNL     1      -8.975   9.287  64.251  0.00  0.00    +0.034 C 
ATOM     19  C   UNL     1      -9.903  12.276  65.574  0.00  0.00    +0.038 C 
ATOM     20  C   UNL     1     -10.250  13.741  64.777  0.00  0.00    +0.153 C 
ATOM     21  O   UNL     1     -11.757  13.683  64.846  0.00  0.00    -0.223 OA
ATOM     22  C   UNL     1     -10.091  14.659  66.123  0.00  0.00    +0.036 C 
ENDROOT
BRANCH   3  23
ATOM     23  C   UNL     1     -11.164  16.275  68.743  0.00  0.00    +0.211 C 
ATOM     24  O   UNL     1     -11.742  16.397  69.824  0.00  0.00    -0.291 OA
BRANCH  23  25
ATOM     25  C   UNL     1     -10.232  17.413  68.432  0.00  0.00    +0.248 C 
ATOM     26  O   UNL     1     -10.837  18.431  67.730  0.00  0.00    -0.212 OA
ENDBRANCH  23  25
ENDBRANCH   3  23
TORSDOF 2
ENDMDL
MODEL 4
REMARK VINA RESULT:      -6.9      3.814      6.375
REMARK  Name = 
REMARK  2 active torsions:
REMARK  status: ('A' for Active; 'I' for Inactive)
REMARK    1  A    between atoms: C_21  and  C_23
REMARK    2  A    between atoms: C_23  and  C_25
REMARK                            x       y       z     vdW  Elec       q    Type
REMARK                         _______ _______ _______ _____ _____    ______ ____
ROOT
ATOM      1  C   UNL     1      -9.785  13.205  65.887  0.00  0.00    +0.003 C 
ATOM      2  C   UNL     1     -11.023  12.711  65.984  0.00  0.00    +0.035 C 
ATOM      3  C   UNL     1     -11.754  13.042  64.737  0.00  0.00    +0.180 C 
ATOM      4  O   UNL     1     -13.027  12.562  64.844  0.00  0.00    -0.218 OA
ATOM      5  C   UNL     1     -10.948  12.298  63.673  0.00  0.00    +0.038 C 
ATOM      6  C   UNL     1      -9.969  11.402  64.425  0.00  0.00    +0.003 C 
ATOM      7  C   UNL     1     -11.043  11.135  65.602  0.00  0.00    +0.003 C 
ATOM      8  C   UNL     1      -9.892  10.820  66.790  0.00  0.00    +0.003 C 
ATOM      9  C   UNL     1      -9.778   9.287  66.358  0.00  0.00    +0.004 C 
ATOM     10  C   UNL     1     -10.477   8.358  67.219  0.00  0.00    +0.022 C 
ATOM     11  C   UNL     1     -10.322   8.561  68.678  0.00  0.00    -0.038 C 
ATOM     12  C   UNL     1     -10.309  10.014  69.056  0.00  0.00    +0.036 C 
ATOM     13  C   UNL     1      -8.923  10.461  69.046  0.00  0.00    +0.009 C 
ATOM     14  C   UNL     1     -11.074  10.232  70.297  0.00  0.00    -0.020 C 
ATOM     15  C   UNL     1     -11.013   9.318  71.267  0.00  0.00    +0.038 C 
ATOM     16  C   UNL     1     -10.766   7.916  70.910  0.00  0.00    +0.195 C 
ATOM     17  O   UNL     1     -10.744   6.983  71.748  0.00  0.00    -0.287 OA
ATOM     18  C   UNL     1     -10.869   7.640  69.470  0.00  0.00    +0.034 C 
ATOM     19  C   UNL     1     -11.174  10.607  67.843  0.00  0.00    +0.038 C 
ATOM     20  C   UNL     1     -11.229  12.184  68.486  0.00  0.00    +0.153 C 
ATOM     21  O   UNL     1      -9.813  12.604  68.177  0.00  0.00    -0.223 OA
ATOM     22  C   UNL     1     -11.865  12.851  67.134  0.00  0.00    +0.036 C 
ENDROOT
BRANCH   3  23
ATOM     23  C   UNL     1     -11.753  14.432  64.285  0.00  0.00    +0.211 C 
ATOM     24  O   UNL     1     -12.850  14.892  63.966  0.00  0.00    -0.291 OA
BRANCH  23  25
ATOM     25  C   UNL     1     -10.925  15.378  65.110  0.00  0.00    +0.248 C 
ATOM     26  O   UNL     1     -10.891  16.655  64.597  0.00  0.00    -0.212 OA
ENDBRANCH  23  25
ENDBRANCH   3  23
TORSDOF 2
ENDMDL
MODEL 5
REMARK VINA RESULT:      -6.9      2.116      3.220
REMARK  Name = 
REMARK  2 active torsions:
REMARK  status: ('A' for Active; 'I' for Inactive)
REMARK    1  A    between atoms: C_21  and  C_23
REMARK    2  A    between atoms: C_23  and  C_25
REMARK                            x       y       z     vdW  Elec       q    Type
REMARK                         _______ _______ _______ _____ _____    ______ ____
ROOT
ATOM      1  C   UNL     1     -11.244  16.301  68.001  0.00  0.00    +0.003 C 
ATOM      2  C   UNL     1     -10.323  16.375  67.036  0.00  0.00    +0.035 C 
ATOM      3  C   UNL     1      -9.606  17.665  67.174  0.00  0.00    +0.180 C 
ATOM      4  O   UNL     1      -8.683  17.755  66.174  0.00  0.00    -0.218 OA
ATOM      5  C   UNL     1      -8.950  17.533  68.549  0.00  0.00    +0.038 C 
ATOM      6  C   UNL     1      -9.141  16.082  68.977  0.00  0.00    +0.003 C 
ATOM      7  C   UNL     1      -8.984  15.562  67.456  0.00  0.00    +0.003 C 
ATOM      8  C   UNL     1      -9.891  14.161  67.679  0.00  0.00    +0.003 C 
ATOM      9  C   UNL     1      -8.625  13.358  68.230  0.00  0.00    +0.004 C 
ATOM     10  C   UNL     1      -8.020  12.450  67.280  0.00  0.00    +0.022 C 
ATOM     11  C   UNL     1      -8.944  11.603  66.491  0.00  0.00    -0.038 C 
ATOM     12  C   UNL     1     -10.188  12.338  66.083  0.00  0.00    +0.036 C 
ATOM     13  C   UNL     1     -11.189  12.121  67.119  0.00  0.00    +0.009 C 
ATOM     14  C   UNL     1     -10.566  11.988  64.703  0.00  0.00    -0.020 C 
ATOM     15  C   UNL     1     -10.397  10.733  64.281  0.00  0.00    +0.038 C 
ATOM     16  C   UNL     1      -9.328   9.921  64.873  0.00  0.00    +0.195 C 
ATOM     17  O   UNL     1      -9.062   8.752  64.503  0.00  0.00    -0.287 OA
ATOM     18  C   UNL     1      -8.386  10.686  65.701  0.00  0.00    +0.034 C 
ATOM     19  C   UNL     1      -9.612  13.834  66.063  0.00  0.00    +0.038 C 
ATOM     20  C   UNL     1     -11.039  14.511  65.425  0.00  0.00    +0.153 C 
ATOM     21  O   UNL     1     -11.892  14.454  66.669  0.00  0.00    -0.223 OA
ATOM     22  C   UNL     1     -10.563  16.059  65.660  0.00  0.00    +0.036 C 
ENDROOT
BRANCH   3  23
ATOM     23  C   UNL     1     -10.400  18.889  67.269  0.00  0.00    +0.211 C 
ATOM     24  O   UNL     1     -10.393  19.448  68.367  0.00  0.00    -0.291 OA
BRANCH  23  25
ATOM     25  C   UNL     1     -10.260  19.840  66.113  0.00  0.00    +0.248 C 
ATOM     26  O   UNL     1     -11.246  19.687  65.165  0.00  0.00    -0.212 OA
ENDBRANCH  23  25
ENDBRANCH   3  23
TORSDOF 2
ENDMDL
MODEL 6
REMARK VINA RESULT:      -6.8      4.339      6.689
REMARK  Name = 
REMARK  2 active torsions:
REMARK  status: ('A' for Active; 'I' for Inactive)
REMARK    1  A    between atoms: C_21  and  C_23
REMARK    2  A    between atoms: C_23  and  C_25
REMARK                            x       y       z     vdW  Elec       q    Type
REMARK                         _______ _______ _______ _____ _____    ______ ____
ROOT
ATOM      1  C   UNL     1      -9.429  12.770  66.606  0.00  0.00    +0.003 C 
ATOM      2  C   UNL     1     -10.692  12.339  66.532  0.00  0.00    +0.035 C 
ATOM      3  C   UNL     1     -11.319  12.942  65.332  0.00  0.00    +0.180 C 
ATOM      4  O   UNL     1     -12.617  12.525  65.268  0.00  0.00    -0.218 OA
ATOM      5  C   UNL     1     -10.476  12.367  64.193  0.00  0.00    +0.038 C 
ATOM      6  C   UNL     1      -9.594  11.289  64.815  0.00  0.00    +0.003 C 
ATOM      7  C   UNL     1     -10.758  10.867  65.853  0.00  0.00    +0.003 C 
ATOM      8  C   UNL     1      -9.708  10.267  67.024  0.00  0.00    +0.003 C 
ATOM      9  C   UNL     1      -9.634   8.839  66.312  0.00  0.00    +0.004 C 
ATOM     10  C   UNL     1     -10.433   7.806  66.935  0.00  0.00    +0.022 C 
ATOM     11  C   UNL     1     -10.370   7.720  68.412  0.00  0.00    -0.038 C 
ATOM     12  C   UNL     1     -10.317   9.072  69.063  0.00  0.00    +0.036 C 
ATOM     13  C   UNL     1      -8.915   9.431  69.222  0.00  0.00    +0.009 C 
ATOM     14  C   UNL     1     -11.155   9.095  70.275  0.00  0.00    -0.020 C 
ATOM     15  C   UNL     1     -11.204   8.011  71.053  0.00  0.00    +0.038 C 
ATOM     16  C   UNL     1     -10.997   6.691  70.447  0.00  0.00    +0.195 C 
ATOM     17  O   UNL     1     -11.076   5.616  71.089  0.00  0.00    -0.287 OA
ATOM     18  C   UNL     1     -11.012   6.699  68.978  0.00  0.00    +0.034 C 
ATOM     19  C   UNL     1     -11.068   9.933  67.938  0.00  0.00    +0.038 C 
ATOM     20  C   UNL     1     -11.096  11.360  68.869  0.00  0.00    +0.153 C 
ATOM     21  O   UNL     1      -9.643  11.748  68.731  0.00  0.00    -0.223 OA
ATOM     22  C   UNL     1     -11.604  12.307  67.635  0.00  0.00    +0.036 C 
ENDROOT
BRANCH   3  23
ATOM     23  C   UNL     1     -11.223  14.390  65.157  0.00  0.00    +0.211 C 
ATOM     24  O   UNL     1     -10.118  14.816  64.817  0.00  0.00    -0.291 OA
BRANCH  23  25
ATOM     25  C   UNL     1     -12.363  15.027  64.412  0.00  0.00    +0.248 C 
ATOM     26  O   UNL     1     -12.031  16.238  63.847  0.00  0.00    -0.212 OA
ENDBRANCH  23  25
ENDBRANCH   3  23
TORSDOF 2
ENDMDL
MODEL 7
REMARK VINA RESULT:      -6.7      1.811      2.660
REMARK  Name = 
REMARK  2 active torsions:
REMARK  status: ('A' for Active; 'I' for Inactive)
REMARK    1  A    between atoms: C_21  and  C_23
REMARK    2  A    between atoms: C_23  and  C_25
REMARK                            x       y       z     vdW  Elec       q    Type
REMARK                         _______ _______ _______ _____ _____    ______ ____
ROOT
ATOM      1  C   UNL     1      -9.116  17.887  68.856  0.00  0.00    +0.003 C 
ATOM      2  C   UNL     1      -8.456  17.740  67.703  0.00  0.00    +0.035 C 
ATOM      3  C   UNL     1      -7.120  18.365  67.849  0.00  0.00    +0.180 C 
ATOM      4  O   UNL     1      -6.453  18.240  66.665  0.00  0.00    -0.218 OA
ATOM      5  C   UNL     1      -6.481  17.528  68.958  0.00  0.00    +0.038 C 
ATOM      6  C   UNL     1      -7.408  16.337  69.183  0.00  0.00    +0.003 C 
ATOM      7  C   UNL     1      -7.780  16.268  67.613  0.00  0.00    +0.003 C 
ATOM      8  C   UNL     1      -9.285  15.550  67.844  0.00  0.00    +0.003 C 
ATOM      9  C   UNL     1      -8.646  14.087  67.898  0.00  0.00    +0.004 C 
ATOM     10  C   UNL     1      -8.800  13.310  66.688  0.00  0.00    +0.022 C 
ATOM     11  C   UNL     1     -10.137  13.333  66.050  0.00  0.00    -0.038 C 
ATOM     12  C   UNL     1     -10.779  14.689  66.115  0.00  0.00    +0.036 C 
ATOM     13  C   UNL     1     -11.576  14.743  67.332  0.00  0.00    +0.009 C 
ATOM     14  C   UNL     1     -11.468  14.995  64.849  0.00  0.00    -0.020 C 
ATOM     15  C   UNL     1     -12.104  14.016  64.202  0.00  0.00    +0.038 C 
ATOM     16  C   UNL     1     -11.623  12.638  64.347  0.00  0.00    +0.195 C 
ATOM     17  O   UNL     1     -12.125  11.663  63.737  0.00  0.00    -0.287 OA
ATOM     18  C   UNL     1     -10.313  12.528  65.004  0.00  0.00    +0.034 C 
ATOM     19  C   UNL     1      -9.460  15.599  66.181  0.00  0.00    +0.038 C 
ATOM     20  C   UNL     1     -10.314  17.068  66.066  0.00  0.00    +0.153 C 
ATOM     21  O   UNL     1     -10.873  17.115  67.468  0.00  0.00    -0.223 OA
ATOM     22  C   UNL     1      -9.013  18.000  66.410  0.00  0.00    +0.036 C 
ENDROOT
BRANCH   3  23
ATOM     23  C   UNL     1      -7.051  19.737  68.349  0.00  0.00    +0.211 C 
ATOM     24  O   UNL     1      -6.194  19.952  69.207  0.00  0.00    -0.291 OA
BRANCH  23  25
ATOM     25  C   UNL     1      -7.127  20.810  67.299  0.00  0.00    +0.248 C 
ATOM     26  O   UNL     1      -6.029  21.641  67.294  0.00  0.00    -0.212 OA
ENDBRANCH  23  25
ENDBRANCH   3  23
TORSDOF 2
ENDMDL
MODEL 8
REMARK VINA RESULT:      -6.6      1.744      2.535
REMARK  Name = 
REMARK  2 active torsions:
REMARK  status: ('A' for Active; 'I' for Inactive)
REMARK    1  A    between atoms: C_21  and  C_23
REMARK    2  A    between atoms: C_23  and  C_25
REMARK                            x       y       z     vdW  Elec       q    Type
REMARK                         _______ _______ _______ _____ _____    ______ ____
ROOT
ATOM      1  C   UNL     1      -9.398  15.666  65.795  0.00  0.00    +0.003 C 
ATOM      2  C   UNL     1      -8.810  15.583  66.992  0.00  0.00    +0.035 C 
ATOM      3  C   UNL     1      -8.123  16.868  67.264  0.00  0.00    +0.180 C 
ATOM      4  O   UNL     1      -7.500  16.776  68.474  0.00  0.00    -0.218 OA
ATOM      5  C   UNL     1      -9.283  17.864  67.291  0.00  0.00    +0.038 C 
ATOM      6  C   UNL     1     -10.562  17.033  67.279  0.00  0.00    +0.003 C 
ATOM      7  C   UNL     1      -9.877  15.878  68.178  0.00  0.00    +0.003 C 
ATOM      8  C   UNL     1     -10.867  14.639  67.612  0.00  0.00    +0.003 C 
ATOM      9  C   UNL     1     -12.006  14.982  68.677  0.00  0.00    +0.004 C 
ATOM     10  C   UNL     1     -12.063  14.095  69.818  0.00  0.00    +0.022 C 
ATOM     11  C   UNL     1     -11.953  12.644  69.535  0.00  0.00    -0.038 C 
ATOM     12  C   UNL     1     -10.964  12.346  68.446  0.00  0.00    +0.036 C 
ATOM     13  C   UNL     1     -11.687  12.336  67.182  0.00  0.00    +0.009 C 
ATOM     14  C   UNL     1     -10.177  11.145  68.777  0.00  0.00    -0.020 C 
ATOM     15  C   UNL     1     -10.778  10.124  69.393  0.00  0.00    +0.038 C 
ATOM     16  C   UNL     1     -11.923  10.396  70.269  0.00  0.00    +0.195 C 
ATOM     17  O   UNL     1     -12.515   9.509  70.928  0.00  0.00    -0.287 OA
ATOM     18  C   UNL     1     -12.120  11.821  70.569  0.00  0.00    +0.034 C 
ATOM     19  C   UNL     1     -10.000  13.617  68.613  0.00  0.00    +0.038 C 
ATOM     20  C   UNL     1      -8.861  13.063  67.474  0.00  0.00    +0.153 C 
ATOM     21  O   UNL     1      -9.643  13.349  66.215  0.00  0.00    -0.223 OA
ATOM     22  C   UNL     1      -8.025  14.470  67.434  0.00  0.00    +0.036 C 
ENDROOT
BRANCH   3  23
ATOM     23  C   UNL     1      -7.218  17.395  66.245  0.00  0.00    +0.211 C 
ATOM     24  O   UNL     1      -7.624  18.381  65.627  0.00  0.00    -0.291 OA
BRANCH  23  25
ATOM     25  C   UNL     1      -5.775  17.499  66.654  0.00  0.00    +0.248 C 
ATOM     26  O   UNL     1      -5.084  16.318  66.500  0.00  0.00    -0.212 OA
ENDBRANCH  23  25
ENDBRANCH   3  23
TORSDOF 2
ENDMDL
MODEL 9
REMARK VINA RESULT:      -6.4      5.447      9.084
REMARK  Name = 
REMARK  2 active torsions:
REMARK  status: ('A' for Active; 'I' for Inactive)
REMARK    1  A    between atoms: C_21  and  C_23
REMARK    2  A    between atoms: C_23  and  C_25
REMARK                            x       y       z     vdW  Elec       q    Type
REMARK                         _______ _______ _______ _____ _____    ______ ____
ROOT
ATOM      1  C   UNL     1      -8.261   8.560  68.655  0.00  0.00    +0.003 C 
ATOM      2  C   UNL     1      -9.519   8.210  68.371  0.00  0.00    +0.035 C 
ATOM      3  C   UNL     1      -9.970   7.231  69.389  0.00  0.00    +0.180 C 
ATOM      4  O   UNL     1     -11.245   6.852  69.086  0.00  0.00    -0.218 OA
ATOM      5  C   UNL     1      -9.907   8.045  70.681  0.00  0.00    +0.038 C 
ATOM      6  C   UNL     1      -9.662   9.493  70.265  0.00  0.00    +0.003 C 
ATOM      7  C   UNL     1     -10.564   9.313  68.937  0.00  0.00    +0.003 C 
ATOM      8  C   UNL     1      -9.784  10.520  68.059  0.00  0.00    +0.003 C 
ATOM      9  C   UNL     1     -10.703  11.660  68.695  0.00  0.00    +0.004 C 
ATOM     10  C   UNL     1     -11.762  12.141  67.834  0.00  0.00    +0.022 C 
ATOM     11  C   UNL     1     -11.398  12.412  66.424  0.00  0.00    -0.038 C 
ATOM     12  C   UNL     1     -10.436  11.397  65.876  0.00  0.00    +0.036 C 
ATOM     13  C   UNL     1      -9.087  11.893  66.113  0.00  0.00    +0.009 C 
ATOM     14  C   UNL     1     -10.788  11.049  64.488  0.00  0.00    -0.020 C 
ATOM     15  C   UNL     1     -11.244  12.004  63.674  0.00  0.00    +0.038 C 
ATOM     16  C   UNL     1     -11.971  13.141  64.249  0.00  0.00    +0.195 C 
ATOM     17  O   UNL     1     -12.479  14.057  63.558  0.00  0.00    -0.287 OA
ATOM     18  C   UNL     1     -12.339  12.963  65.660  0.00  0.00    +0.034 C 
ATOM     19  C   UNL     1     -10.821  10.145  66.801  0.00  0.00    +0.038 C 
ATOM     20  C   UNL     1      -9.814   9.055  65.966  0.00  0.00    +0.153 C 
ATOM     21  O   UNL     1      -8.482   9.522  66.503  0.00  0.00    -0.223 OA
ATOM     22  C   UNL     1      -9.986   7.855  67.065  0.00  0.00    +0.036 C 
ENDROOT
BRANCH   3  23
ATOM     23  C   UNL     1      -9.124   6.069  69.652  0.00  0.00    +0.211 C 
ATOM     24  O   UNL     1      -8.691   5.972  70.802  0.00  0.00    -0.291 OA
BRANCH  23  25
ATOM     25  C   UNL     1      -9.621   4.767  69.089  0.00  0.00    +0.248 C 
ATOM     26  O   UNL     1      -9.756   3.782  70.041  0.00  0.00    -0.212 OA
ENDBRANCH  23  25
ENDBRANCH   3  23
TORSDOF 2
ENDMDL
