MODEL 1
REMARK VINA RESULT:      -6.7      0.000      0.000
REMARK  Name = 
REMARK  5 active torsions:
REMARK  status: ('A' for Active; 'I' for Inactive)
REMARK    1  A    between atoms: C_5  and  O_6
REMARK    2  A    between atoms: O_6  and  C_7
REMARK    3  A    between atoms: C_7  and  C_9
REMARK    4  A    between atoms: C_9  and  C_10
REMARK    5  A    between atoms: C_9  and  C_12
REMARK                            x       y       z     vdW  Elec       q    Type
REMARK                         _______ _______ _______ _____ _____    ______ ____
ROOT
ATOM      1  O   UNL     1     -10.483  16.791  64.962  0.00  0.00    -0.452 OA
ENDROOT
BRANCH   1   9
ATOM      2  C   UNL     1      -6.953  18.806  65.728  0.00  0.00    +0.090 C 
ATOM      3  N   UNL     1      -8.076  19.606  65.850  0.00  0.00    -0.269 NA
ATOM      4  C   UNL     1      -8.936  18.751  66.844  0.00  0.00    +0.091 C 
ATOM      5  C   UNL     1      -8.007  19.206  68.221  0.00  0.00    +0.158 C 
ATOM      6  C   UNL     1      -9.200  20.356  67.806  0.00  0.00    +0.158 C 
ATOM      7  O   UNL     1      -9.532  19.150  68.924  0.00  0.00    -0.351 OA
ATOM      8  C   UNL     1      -8.592  17.267  66.425  0.00  0.00    +0.062 C 
ATOM      9  C   UNL     1     -10.283  17.419  66.337  0.00  0.00    +0.172 C 
ATOM     10  C   UNL     1     -10.432  19.026  65.806  0.00  0.00    +0.062 C 
ATOM     11  C   UNL     1      -9.159  18.993  66.747  0.00  0.00    +0.091 C 
ENDBRANCH   1   9
BRANCH   1  12
ATOM     12  C   UNL     1     -11.399  15.760  64.850  0.00  0.00    +0.323 C 
ATOM     13  O   UNL     1     -12.053  16.030  63.782  0.00  0.00    -0.250 OA
BRANCH  12  14
ATOM     14  C   UNL     1     -10.921  14.239  64.589  0.00  0.00    +0.154 C 
BRANCH  14  15
ATOM     15  C   UNL     1     -10.716  13.781  66.104  0.00  0.00    -0.009 A 
ATOM     16  C   UNL     1     -11.905  14.021  66.785  0.00  0.00    -0.004 A 
ATOM     17  C   UNL     1     -11.876  13.983  68.172  0.00  0.00    -0.000 A 
ATOM     18  C   UNL     1     -10.643  13.671  68.746  0.00  0.00    -0.000 A 
ATOM     19  C   UNL     1      -9.839  12.837  67.971  0.00  0.00    -0.000 A 
ATOM     20  C   UNL     1      -9.803  12.983  66.580  0.00  0.00    -0.004 A 
ENDBRANCH  14  15
BRANCH  14  21
ATOM     21  C   UNL     1     -12.448  13.653  64.489  0.00  0.00    +0.198 C 
ATOM     22  O   UNL     1     -12.536  12.830  63.418  0.00  0.00    -0.219 OA
ENDBRANCH  14  21
ENDBRANCH  12  14
ENDBRANCH   1  12
TORSDOF 5
ENDMDL
MODEL 2
REMARK VINA RESULT:      -6.6      2.376      3.478
REMARK  Name = 
REMARK  5 active torsions:
REMARK  status: ('A' for Active; 'I' for Inactive)
REMARK    1  A    between atoms: C_5  and  O_6
REMARK    2  A    between atoms: O_6  and  C_7
REMARK    3  A    between atoms: C_7  and  C_9
REMARK    4  A    between atoms: C_9  and  C_10
REMARK    5  A    between atoms: C_9  and  C_12
REMARK                            x       y       z     vdW  Elec       q    Type
REMARK                         _______ _______ _______ _____ _____    ______ ____
ROOT
ATOM      1  O   UNL     1      -9.623  14.325  66.912  0.00  0.00    -0.452 OA
ENDROOT
BRANCH   1   9
ATOM      2  C   UNL     1      -7.229  17.674  66.508  0.00  0.00    +0.090 C 
ATOM      3  N   UNL     1      -8.384  17.733  65.748  0.00  0.00    -0.269 NA
ATOM      4  C   UNL     1      -9.469  17.447  66.843  0.00  0.00    +0.091 C 
ATOM      5  C   UNL     1      -9.382  19.034  67.507  0.00  0.00    +0.158 C 
ATOM      6  C   UNL     1     -10.398  18.934  66.138  0.00  0.00    +0.158 C 
ATOM      7  O   UNL     1     -11.030  18.752  67.682  0.00  0.00    -0.351 OA
ATOM      8  C   UNL     1      -8.745  16.419  67.800  0.00  0.00    +0.062 C 
ATOM      9  C   UNL     1     -10.195  15.684  67.301  0.00  0.00    +0.172 C 
ATOM     10  C   UNL     1     -10.319  16.270  65.712  0.00  0.00    +0.062 C 
ATOM     11  C   UNL     1      -9.654  17.433  66.554  0.00  0.00    +0.091 C 
ENDBRANCH   1   9
BRANCH   1  12
ATOM     12  C   UNL     1     -10.140  13.204  67.538  0.00  0.00    +0.323 C 
ATOM     13  O   UNL     1     -10.100  13.489  68.786  0.00  0.00    -0.250 OA
BRANCH  12  14
ATOM     14  C   UNL     1     -11.680  12.764  67.331  0.00  0.00    +0.154 C 
BRANCH  14  15
ATOM     15  C   UNL     1     -11.622  12.383  65.783  0.00  0.00    -0.009 A 
ATOM     16  C   UNL     1     -10.744  11.314  65.640  0.00  0.00    -0.004 A 
ATOM     17  C   UNL     1     -10.305  11.003  64.361  0.00  0.00    -0.000 A 
ATOM     18  C   UNL     1     -10.824  11.789  63.331  0.00  0.00    -0.000 A 
ATOM     19  C   UNL     1     -12.107  12.278  63.569  0.00  0.00    -0.000 A 
ATOM     20  C   UNL     1     -12.479  12.695  64.851  0.00  0.00    -0.004 A 
ENDBRANCH  14  15
BRANCH  14  21
ATOM     21  C   UNL     1     -11.431  11.228  67.844  0.00  0.00    +0.198 C 
ATOM     22  O   UNL     1     -12.343  10.928  68.799  0.00  0.00    -0.219 OA
ENDBRANCH  14  21
ENDBRANCH  12  14
ENDBRANCH   1  12
TORSDOF 5
ENDMDL
MODEL 3
REMARK VINA RESULT:      -6.4      3.412      6.409
REMARK  Name = 
REMARK  5 active torsions:
REMARK  status: ('A' for Active; 'I' for Inactive)
REMARK    1  A    between atoms: C_5  and  O_6
REMARK    2  A    between atoms: O_6  and  C_7
REMARK    3  A    between atoms: C_7  and  C_9
REMARK    4  A    between atoms: C_9  and  C_10
REMARK    5  A    between atoms: C_9  and  C_12
REMARK                            x       y       z     vdW  Elec       q    Type
REMARK                         _______ _______ _______ _____ _____    ______ ____
ROOT
ATOM      1  O   UNL     1     -10.236  13.545  68.038  0.00  0.00    -0.452 OA
ENDROOT
BRANCH   1   9
ATOM      2  C   UNL     1      -9.461  11.040  64.839  0.00  0.00    +0.090 C 
ATOM      3  N   UNL     1     -10.788  11.027  65.235  0.00  0.00    -0.269 NA
ATOM      4  C   UNL     1     -11.116  12.560  65.204  0.00  0.00    +0.091 C 
ATOM      5  C   UNL     1     -11.244  12.616  63.487  0.00  0.00    +0.158 C 
ATOM      6  C   UNL     1     -12.676  12.083  64.250  0.00  0.00    +0.158 C 
ATOM      7  O   UNL     1     -12.457  13.707  63.889  0.00  0.00    -0.351 OA
ATOM      8  C   UNL     1      -9.760  13.223  65.669  0.00  0.00    +0.062 C 
ATOM      9  C   UNL     1     -10.967  13.792  66.722  0.00  0.00    +0.172 C 
ATOM     10  C   UNL     1     -11.966  12.423  66.832  0.00  0.00    +0.062 C 
ATOM     11  C   UNL     1     -11.396  12.430  65.355  0.00  0.00    +0.091 C 
ENDBRANCH   1   9
BRANCH   1  12
ATOM     12  C   UNL     1     -10.520  14.384  69.102  0.00  0.00    +0.323 C 
ATOM     13  O   UNL     1      -9.479  15.122  69.212  0.00  0.00    -0.250 OA
BRANCH  12  14
ATOM     14  C   UNL     1     -11.710  15.473  69.015  0.00  0.00    +0.154 C 
BRANCH  14  15
ATOM     15  C   UNL     1     -12.173  15.455  70.542  0.00  0.00    -0.009 A 
ATOM     16  C   UNL     1     -12.802  14.238  70.782  0.00  0.00    -0.004 A 
ATOM     17  C   UNL     1     -13.547  14.112  71.947  0.00  0.00    -0.000 A 
ATOM     18  C   UNL     1     -13.559  15.229  72.785  0.00  0.00    -0.000 A 
ATOM     19  C   UNL     1     -12.401  16.003  72.732  0.00  0.00    -0.000 A 
ATOM     20  C   UNL     1     -11.741  16.206  71.516  0.00  0.00    -0.004 A 
ENDBRANCH  14  15
BRANCH  14  21
ATOM     21  C   UNL     1     -10.708  16.755  69.206  0.00  0.00    +0.198 C 
ATOM     22  O   UNL     1     -10.982  17.675  68.252  0.00  0.00    -0.219 OA
ENDBRANCH  14  21
ENDBRANCH  12  14
ENDBRANCH   1  12
TORSDOF 5
ENDMDL
MODEL 4
REMARK VINA RESULT:      -6.3      2.413      6.482
REMARK  Name = 
REMARK  5 active torsions:
REMARK  status: ('A' for Active; 'I' for Inactive)
REMARK    1  A    between atoms: C_5  and  O_6
REMARK    2  A    between atoms: O_6  and  C_7
REMARK    3  A    between atoms: C_7  and  C_9
REMARK    4  A    between atoms: C_9  and  C_10
REMARK    5  A    between atoms: C_9  and  C_12
REMARK                            x       y       z     vdW  Elec       q    Type
REMARK                         _______ _______ _______ _____ _____    ______ ____
ROOT
ATOM      1  O   UNL     1     -10.843  15.743  65.952  0.00  0.00    -0.452 OA
ENDROOT
BRANCH   1   9
ATOM      2  C   UNL     1     -11.450  11.797  67.033  0.00  0.00    +0.090 C 
ATOM      3  N   UNL     1     -12.175  12.175  65.916  0.00  0.00    -0.269 NA
ATOM      4  C   UNL     1     -11.035  12.766  65.016  0.00  0.00    +0.091 C 
ATOM      5  C   UNL     1     -10.434  11.218  64.559  0.00  0.00    +0.158 C 
ATOM      6  C   UNL     1     -11.765  11.726  63.617  0.00  0.00    +0.158 C 
ATOM      7  O   UNL     1     -10.196  12.042  63.114  0.00  0.00    -0.351 OA
ATOM      8  C   UNL     1     -10.064  13.436  66.066  0.00  0.00    +0.062 C 
ATOM      9  C   UNL     1     -10.488  14.648  64.952  0.00  0.00    +0.172 C 
ATOM     10  C   UNL     1     -12.093  14.216  64.606  0.00  0.00    +0.062 C 
ATOM     11  C   UNL     1     -11.317  12.857  64.842  0.00  0.00    +0.091 C 
ENDBRANCH   1   9
BRANCH   1  12
ATOM     12  C   UNL     1     -10.248  16.983  65.791  0.00  0.00    +0.323 C 
ATOM     13  O   UNL     1     -10.988  17.581  64.934  0.00  0.00    -0.250 OA
BRANCH  12  14
ATOM     14  C   UNL     1     -10.191  18.048  67.004  0.00  0.00    +0.154 C 
BRANCH  14  15
ATOM     15  C   UNL     1      -8.607  18.189  67.134  0.00  0.00    -0.009 A 
ATOM     16  C   UNL     1      -8.296  18.269  68.488  0.00  0.00    -0.004 A 
ATOM     17  C   UNL     1      -7.021  18.692  68.835  0.00  0.00    -0.000 A 
ATOM     18  C   UNL     1      -6.159  18.966  67.772  0.00  0.00    -0.000 A 
ATOM     19  C   UNL     1      -6.395  18.207  66.627  0.00  0.00    -0.000 A 
ATOM     20  C   UNL     1      -7.704  17.899  66.240  0.00  0.00    -0.004 A 
ENDBRANCH  14  15
BRANCH  14  21
ATOM     21  C   UNL     1     -10.349  19.350  66.022  0.00  0.00    +0.198 C 
ATOM     22  O   UNL     1     -10.164  20.477  66.750  0.00  0.00    -0.219 OA
ENDBRANCH  14  21
ENDBRANCH  12  14
ENDBRANCH   1  12
TORSDOF 5
ENDMDL
MODEL 5
REMARK VINA RESULT:      -6.3      0.981      1.437
REMARK  Name = 
REMARK  5 active torsions:
REMARK  status: ('A' for Active; 'I' for Inactive)
REMARK    1  A    between atoms: C_5  and  O_6
REMARK    2  A    between atoms: O_6  and  C_7
REMARK    3  A    between atoms: C_7  and  C_9
REMARK    4  A    between atoms: C_9  and  C_10
REMARK    5  A    between atoms: C_9  and  C_12
REMARK                            x       y       z     vdW  Elec       q    Type
REMARK                         _______ _______ _______ _____ _____    ______ ____
ROOT
ATOM      1  O   UNL     1     -10.207  16.104  65.134  0.00  0.00    -0.452 OA
ENDROOT
BRANCH   1   9
ATOM      2  C   UNL     1      -7.012  18.632  65.848  0.00  0.00    +0.090 C 
ATOM      3  N   UNL     1      -8.235  19.279  65.866  0.00  0.00    -0.269 NA
ATOM      4  C   UNL     1      -9.017  18.394  66.899  0.00  0.00    +0.091 C 
ATOM      5  C   UNL     1      -8.219  19.077  68.263  0.00  0.00    +0.158 C 
ATOM      6  C   UNL     1      -9.534  20.018  67.716  0.00  0.00    +0.158 C 
ATOM      7  O   UNL     1      -9.752  18.868  68.918  0.00  0.00    -0.351 OA
ATOM      8  C   UNL     1      -8.462  16.943  66.615  0.00  0.00    +0.062 C 
ATOM      9  C   UNL     1     -10.152  16.857  66.458  0.00  0.00    +0.172 C 
ATOM     10  C   UNL     1     -10.489  18.383  65.792  0.00  0.00    +0.062 C 
ATOM     11  C   UNL     1      -9.266  18.596  66.774  0.00  0.00    +0.091 C 
ENDBRANCH   1   9
BRANCH   1  12
ATOM     12  C   UNL     1     -11.144  15.093  65.003  0.00  0.00    +0.323 C 
ATOM     13  O   UNL     1     -11.901  15.483  64.047  0.00  0.00    -0.250 OA
BRANCH  12  14
ATOM     14  C   UNL     1     -10.715  13.611  64.525  0.00  0.00    +0.154 C 
BRANCH  14  15
ATOM     15  C   UNL     1     -10.948  12.832  65.898  0.00  0.00    -0.009 A 
ATOM     16  C   UNL     1      -9.901  11.931  66.060  0.00  0.00    -0.004 A 
ATOM     17  C   UNL     1     -10.041  10.940  67.021  0.00  0.00    -0.000 A 
ATOM     18  C   UNL     1     -11.225  10.971  67.760  0.00  0.00    -0.000 A 
ATOM     19  C   UNL     1     -11.764  12.245  67.933  0.00  0.00    -0.000 A 
ATOM     20  C   UNL     1     -11.710  13.183  66.896  0.00  0.00    -0.004 A 
ENDBRANCH  14  15
BRANCH  14  21
ATOM     21  C   UNL     1     -12.198  13.250  63.927  0.00  0.00    +0.198 C 
ATOM     22  O   UNL     1     -12.157  12.022  63.357  0.00  0.00    -0.219 OA
ENDBRANCH  14  21
ENDBRANCH  12  14
ENDBRANCH   1  12
TORSDOF 5
ENDMDL
MODEL 6
REMARK VINA RESULT:      -6.1      3.145      4.190
REMARK  Name = 
REMARK  5 active torsions:
REMARK  status: ('A' for Active; 'I' for Inactive)
REMARK    1  A    between atoms: C_5  and  O_6
REMARK    2  A    between atoms: O_6  and  C_7
REMARK    3  A    between atoms: C_7  and  C_9
REMARK    4  A    between atoms: C_9  and  C_10
REMARK    5  A    between atoms: C_9  and  C_12
REMARK                            x       y       z     vdW  Elec       q    Type
REMARK                         _______ _______ _______ _____ _____    ______ ____
ROOT
ATOM      1  O   UNL     1     -11.536  16.277  68.135  0.00  0.00    -0.452 OA
ENDROOT
BRANCH   1   9
ATOM      2  C   UNL     1     -10.490  19.672  66.017  0.00  0.00    +0.090 C 
ATOM      3  N   UNL     1      -9.980  19.652  67.303  0.00  0.00    -0.269 NA
ATOM      4  C   UNL     1      -9.262  18.258  67.310  0.00  0.00    +0.091 C 
ATOM      5  C   UNL     1      -7.918  18.815  66.389  0.00  0.00    +0.158 C 
ATOM      6  C   UNL     1      -7.778  19.161  68.055  0.00  0.00    +0.158 C 
ATOM      7  O   UNL     1      -7.123  17.753  67.420  0.00  0.00    -0.351 OA
ATOM      8  C   UNL     1     -10.206  17.368  66.408  0.00  0.00    +0.062 C 
ATOM      9  C   UNL     1     -10.057  16.565  67.899  0.00  0.00    +0.172 C 
ATOM     10  C   UNL     1      -9.976  17.885  68.966  0.00  0.00    +0.062 C 
ATOM     11  C   UNL     1      -9.245  18.349  67.641  0.00  0.00    +0.091 C 
ENDBRANCH   1   9
BRANCH   1  12
ATOM     12  C   UNL     1     -11.899  14.980  68.454  0.00  0.00    +0.323 C 
ATOM     13  O   UNL     1     -11.448  14.276  67.483  0.00  0.00    -0.250 OA
BRANCH  12  14
ATOM     14  C   UNL     1     -11.280  14.230  69.744  0.00  0.00    +0.154 C 
BRANCH  14  15
ATOM     15  C   UNL     1     -12.256  14.816  70.862  0.00  0.00    -0.009 A 
ATOM     16  C   UNL     1     -11.542  15.756  71.599  0.00  0.00    -0.004 A 
ATOM     17  C   UNL     1     -12.084  16.180  72.804  0.00  0.00    -0.000 A 
ATOM     18  C   UNL     1     -13.324  15.634  73.141  0.00  0.00    -0.000 A 
ATOM     19  C   UNL     1     -14.126  15.308  72.049  0.00  0.00    -0.000 A 
ATOM     20  C   UNL     1     -13.558  14.770  70.889  0.00  0.00    -0.004 A 
ENDBRANCH  14  15
BRANCH  14  21
ATOM     21  C   UNL     1     -12.160  12.866  69.517  0.00  0.00    +0.198 C 
ATOM     22  O   UNL     1     -11.711  11.906  70.360  0.00  0.00    -0.219 OA
ENDBRANCH  14  21
ENDBRANCH  12  14
ENDBRANCH   1  12
TORSDOF 5
ENDMDL
MODEL 7
REMARK VINA RESULT:      -6.1      2.990      3.921
REMARK  Name = 
REMARK  5 active torsions:
REMARK  status: ('A' for Active; 'I' for Inactive)
REMARK    1  A    between atoms: C_5  and  O_6
REMARK    2  A    between atoms: O_6  and  C_7
REMARK    3  A    between atoms: C_7  and  C_9
REMARK    4  A    between atoms: C_9  and  C_10
REMARK    5  A    between atoms: C_9  and  C_12
REMARK                            x       y       z     vdW  Elec       q    Type
REMARK                         _______ _______ _______ _____ _____    ______ ____
ROOT
ATOM      1  O   UNL     1     -10.692  15.538  67.694  0.00  0.00    -0.452 OA
ENDROOT
BRANCH   1   9
ATOM      2  C   UNL     1      -7.025  17.174  66.704  0.00  0.00    +0.090 C 
ATOM      3  N   UNL     1      -8.075  17.709  65.979  0.00  0.00    -0.269 NA
ATOM      4  C   UNL     1      -9.042  18.135  67.137  0.00  0.00    +0.091 C 
ATOM      5  C   UNL     1      -8.125  19.534  67.544  0.00  0.00    +0.158 C 
ATOM      6  C   UNL     1      -9.195  19.790  66.238  0.00  0.00    +0.158 C 
ATOM      7  O   UNL     1      -9.673  20.133  67.810  0.00  0.00    -0.351 OA
ATOM      8  C   UNL     1      -8.818  17.006  68.219  0.00  0.00    +0.062 C 
ATOM      9  C   UNL     1     -10.485  17.037  67.885  0.00  0.00    +0.172 C 
ATOM     10  C   UNL     1     -10.471  17.411  66.228  0.00  0.00    +0.062 C 
ATOM     11  C   UNL     1      -9.240  18.180  66.859  0.00  0.00    +0.091 C 
ENDBRANCH   1   9
BRANCH   1  12
ATOM     12  C   UNL     1     -11.608  14.903  68.516  0.00  0.00    +0.323 C 
ATOM     13  O   UNL     1     -12.169  14.037  67.757  0.00  0.00    -0.250 OA
BRANCH  12  14
ATOM     14  C   UNL     1     -11.126  14.006  69.770  0.00  0.00    +0.154 C 
BRANCH  14  15
ATOM     15  C   UNL     1     -12.117  14.582  70.880  0.00  0.00    -0.009 A 
ATOM     16  C   UNL     1     -11.544  15.736  71.405  0.00  0.00    -0.004 A 
ATOM     17  C   UNL     1     -12.074  16.244  72.583  0.00  0.00    -0.000 A 
ATOM     18  C   UNL     1     -13.164  15.550  73.110  0.00  0.00    -0.000 A 
ATOM     19  C   UNL     1     -13.963  14.920  72.156  0.00  0.00    -0.000 A 
ATOM     20  C   UNL     1     -13.383  14.314  71.037  0.00  0.00    -0.004 A 
ENDBRANCH  14  15
BRANCH  14  21
ATOM     21  C   UNL     1     -12.095  12.741  69.386  0.00  0.00    +0.198 C 
ATOM     22  O   UNL     1     -11.534  11.599  69.849  0.00  0.00    -0.219 OA
ENDBRANCH  14  21
ENDBRANCH  12  14
ENDBRANCH   1  12
TORSDOF 5
ENDMDL
MODEL 8
REMARK VINA RESULT:      -6.0      2.625      6.302
REMARK  Name = 
REMARK  5 active torsions:
REMARK  status: ('A' for Active; 'I' for Inactive)
REMARK    1  A    between atoms: C_5  and  O_6
REMARK    2  A    between atoms: O_6  and  C_7
REMARK    3  A    between atoms: C_7  and  C_9
REMARK    4  A    between atoms: C_9  and  C_10
REMARK    5  A    between atoms: C_9  and  C_12
REMARK                            x       y       z     vdW  Elec       q    Type
REMARK                         _______ _______ _______ _____ _____    ______ ____
ROOT
ATOM      1  O   UNL     1      -8.881  14.689  67.365  0.00  0.00    -0.452 OA
ENDROOT
BRANCH   1   9
ATOM      2  C   UNL     1     -11.261  11.320  67.057  0.00  0.00    +0.090 C 
ATOM      3  N   UNL     1     -11.986  12.493  67.165  0.00  0.00    -0.269 NA
ATOM      4  C   UNL     1     -11.351  13.336  66.005  0.00  0.00    +0.091 C 
ATOM      5  C   UNL     1     -12.199  12.490  64.768  0.00  0.00    +0.158 C 
ATOM      6  C   UNL     1     -13.123  13.734  65.485  0.00  0.00    +0.158 C 
ATOM      7  O   UNL     1     -12.216  14.034  64.106  0.00  0.00    -0.351 OA
ATOM      8  C   UNL     1      -9.836  12.887  66.029  0.00  0.00    +0.062 C 
ATOM      9  C   UNL     1      -9.845  14.580  66.189  0.00  0.00    +0.172 C 
ATOM     10  C   UNL     1     -11.254  14.806  67.111  0.00  0.00    +0.062 C 
ATOM     11  C   UNL     1     -11.545  13.570  66.166  0.00  0.00    +0.091 C 
ENDBRANCH   1   9
BRANCH   1  12
ATOM     12  C   UNL     1      -7.915  15.679  67.319  0.00  0.00    +0.323 C 
ATOM     13  O   UNL     1      -6.835  15.057  67.023  0.00  0.00    -0.250 OA
BRANCH  12  14
ATOM     14  C   UNL     1      -7.963  16.844  66.201  0.00  0.00    +0.154 C 
BRANCH  14  15
ATOM     15  C   UNL     1      -8.756  17.952  67.032  0.00  0.00    -0.009 A 
ATOM     16  C   UNL     1      -9.880  18.311  66.297  0.00  0.00    -0.004 A 
ATOM     17  C   UNL     1     -10.559  19.462  66.673  0.00  0.00    -0.000 A 
ATOM     18  C   UNL     1     -10.051  20.132  67.788  0.00  0.00    -0.000 A 
ATOM     19  C   UNL     1      -9.429  19.307  68.723  0.00  0.00    -0.000 A 
ATOM     20  C   UNL     1      -8.653  18.221  68.303  0.00  0.00    -0.004 A 
ENDBRANCH  14  15
BRANCH  14  21
ATOM     21  C   UNL     1      -6.484  17.436  66.588  0.00  0.00    +0.198 C 
ATOM     22  O   UNL     1      -5.961  18.058  65.505  0.00  0.00    -0.219 OA
ENDBRANCH  14  21
ENDBRANCH  12  14
ENDBRANCH   1  12
TORSDOF 5
ENDMDL
MODEL 9
REMARK VINA RESULT:      -6.0      2.333      3.334
REMARK  Name = 
REMARK  5 active torsions:
REMARK  status: ('A' for Active; 'I' for Inactive)
REMARK    1  A    between atoms: C_5  and  O_6
REMARK    2  A    between atoms: O_6  and  C_7
REMARK    3  A    between atoms: C_7  and  C_9
REMARK    4  A    between atoms: C_9  and  C_10
REMARK    5  A    between atoms: C_9  and  C_12
REMARK                            x       y       z     vdW  Elec       q    Type
REMARK                         _______ _______ _______ _____ _____    ______ ____
ROOT
ATOM      1  O   UNL     1     -10.813  15.431  67.479  0.00  0.00    -0.452 OA
ENDROOT
BRANCH   1   9
ATOM      2  C   UNL     1     -10.694  19.325  66.087  0.00  0.00    +0.090 C 
ATOM      3  N   UNL     1     -10.602  19.234  67.465  0.00  0.00    -0.269 NA
ATOM      4  C   UNL     1      -9.412  18.224  67.612  0.00  0.00    +0.091 C 
ATOM      5  C   UNL     1      -8.213  19.403  67.240  0.00  0.00    +0.158 C 
ATOM      6  C   UNL     1      -8.700  19.434  68.876  0.00  0.00    +0.158 C 
ATOM      7  O   UNL     1      -7.378  18.518  68.399  0.00  0.00    -0.351 OA
ATOM      8  C   UNL     1      -9.617  17.252  66.384  0.00  0.00    +0.062 C 
ATOM      9  C   UNL     1      -9.579  16.277  67.775  0.00  0.00    +0.172 C 
ATOM     10  C   UNL     1     -10.344  17.294  68.899  0.00  0.00    +0.062 C 
ATOM     11  C   UNL     1      -9.527  18.247  67.935  0.00  0.00    +0.091 C 
ENDBRANCH   1   9
BRANCH   1  12
ATOM     12  C   UNL     1     -10.666  14.055  67.469  0.00  0.00    +0.323 C 
ATOM     13  O   UNL     1     -10.291  13.767  68.659  0.00  0.00    -0.250 OA
BRANCH  12  14
ATOM     14  C   UNL     1     -11.936  13.079  67.259  0.00  0.00    +0.154 C 
BRANCH  14  15
ATOM     15  C   UNL     1     -11.565  12.499  65.819  0.00  0.00    -0.009 A 
ATOM     16  C   UNL     1     -12.100  13.358  64.864  0.00  0.00    -0.004 A 
ATOM     17  C   UNL     1     -12.164  12.908  63.553  0.00  0.00    -0.000 A 
ATOM     18  C   UNL     1     -11.648  11.632  63.320  0.00  0.00    -0.000 A 
ATOM     19  C   UNL     1     -10.607  11.266  64.172  0.00  0.00    -0.000 A 
ATOM     20  C   UNL     1     -10.634  11.638  65.521  0.00  0.00    -0.004 A 
ENDBRANCH  14  15
BRANCH  14  21
ATOM     21  C   UNL     1     -11.256  11.829  68.072  0.00  0.00    +0.198 C 
ATOM     22  O   UNL     1     -12.232  10.982  68.476  0.00  0.00    -0.219 OA
ENDBRANCH  14  21
ENDBRANCH  12  14
ENDBRANCH   1  12
TORSDOF 5
ENDMDL
