MODEL 1
REMARK VINA RESULT:      -5.0      0.000      0.000
REMARK  Name = 
REMARK  5 active torsions:
REMARK  status: ('A' for Active; 'I' for Inactive)
REMARK    1  A    between atoms: C_2  and  C_4
REMARK    2  A    between atoms: C_4  and  C_5
REMARK    3  A    between atoms: C_5  and  C_7
REMARK    4  A    between atoms: C_5  and  C_11
REMARK    5  A    between atoms: C_7  and  C_8
REMARK                            x       y       z     vdW  Elec       q    Type
REMARK                         _______ _______ _______ _____ _____    ______ ____
ROOT
ATOM      1  C   UNL     1     -11.399  13.645  65.575  0.00  0.00    +0.240 C 
ATOM      2  O   UNL     1     -12.368  14.237  66.355  0.00  0.00    -0.213 OA
ENDROOT
BRANCH   1   3
ATOM      3  C   UNL     1     -12.030  12.767  64.546  0.00  0.00    +0.393 C 
ATOM      4  O   UNL     1     -11.348  12.574  63.365  0.00  0.00    -0.243 OA
ATOM      5  O   UNL     1     -13.266  12.553  64.696  0.00  0.00    -0.243 OA
ENDBRANCH   1   3
BRANCH   1   6
ATOM      6  C   UNL     1     -10.601  12.725  66.487  0.00  0.00    +0.156 C 
BRANCH   6   8
ATOM      7  O   UNL     1     -12.119  11.365  67.682  0.00  0.00    -0.246 OA
ATOM      8  C   UNL     1     -11.390  12.402  67.688  0.00  0.00    +0.368 C 
ATOM      9  O   UNL     1     -11.403  13.152  68.845  0.00  0.00    -0.246 OA
ENDBRANCH   6   8
ENDBRANCH   1   6
BRANCH   1  10
ATOM     10  C   UNL     1     -10.427  14.602  64.955  0.00  0.00    +0.156 C 
BRANCH  10  11
ATOM     11  C   UNL     1     -10.881  16.005  64.969  0.00  0.00    +0.368 C 
ATOM     12  O   UNL     1     -11.662  16.432  63.896  0.00  0.00    -0.246 OA
ATOM     13  O   UNL     1     -10.282  16.923  65.607  0.00  0.00    -0.246 OA
ENDBRANCH  10  11
ENDBRANCH   1  10
TORSDOF 5
ENDMDL
MODEL 2
REMARK VINA RESULT:      -4.7      1.133      3.441
REMARK  Name = 
REMARK  5 active torsions:
REMARK  status: ('A' for Active; 'I' for Inactive)
REMARK    1  A    between atoms: C_2  and  C_4
REMARK    2  A    between atoms: C_4  and  C_5
REMARK    3  A    between atoms: C_5  and  C_7
REMARK    4  A    between atoms: C_5  and  C_11
REMARK    5  A    between atoms: C_7  and  C_8
REMARK                            x       y       z     vdW  Elec       q    Type
REMARK                         _______ _______ _______ _____ _____    ______ ____
ROOT
ATOM      1  C   UNL     1     -11.165  14.582  65.350  0.00  0.00    +0.240 C 
ATOM      2  O   UNL     1     -10.104  13.717  65.506  0.00  0.00    -0.213 OA
ENDROOT
BRANCH   1   3
ATOM      3  C   UNL     1     -10.671  15.983  65.195  0.00  0.00    +0.393 C 
ATOM      4  O   UNL     1     -11.309  16.788  64.277  0.00  0.00    -0.243 OA
ATOM      5  O   UNL     1      -9.517  16.208  65.657  0.00  0.00    -0.243 OA
ENDBRANCH   1   3
BRANCH   1   6
ATOM      6  C   UNL     1     -11.954  14.552  66.651  0.00  0.00    +0.156 C 
BRANCH   6   8
ATOM      7  O   UNL     1     -10.600  13.642  68.361  0.00  0.00    -0.246 OA
ATOM      8  C   UNL     1     -11.495  13.430  67.489  0.00  0.00    +0.368 C 
ATOM      9  O   UNL     1     -11.968  12.138  67.401  0.00  0.00    -0.246 OA
ENDBRANCH   6   8
ENDBRANCH   1   6
BRANCH   1  10
ATOM     10  C   UNL     1     -12.114  14.213  64.252  0.00  0.00    +0.156 C 
BRANCH  10  11
ATOM     11  C   UNL     1     -12.249  12.759  64.044  0.00  0.00    +0.368 C 
ATOM     12  O   UNL     1     -11.409  12.169  63.101  0.00  0.00    -0.246 OA
ATOM     13  O   UNL     1     -13.308  12.115  64.309  0.00  0.00    -0.246 OA
ENDBRANCH  10  11
ENDBRANCH   1  10
TORSDOF 5
ENDMDL
MODEL 3
REMARK VINA RESULT:      -4.7      1.490      3.526
REMARK  Name = 
REMARK  5 active torsions:
REMARK  status: ('A' for Active; 'I' for Inactive)
REMARK    1  A    between atoms: C_2  and  C_4
REMARK    2  A    between atoms: C_4  and  C_5
REMARK    3  A    between atoms: C_5  and  C_7
REMARK    4  A    between atoms: C_5  and  C_11
REMARK    5  A    between atoms: C_7  and  C_8
REMARK                            x       y       z     vdW  Elec       q    Type
REMARK                         _______ _______ _______ _____ _____    ______ ____
ROOT
ATOM      1  C   UNL     1     -11.408  14.829  65.596  0.00  0.00    +0.240 C 
ATOM      2  O   UNL     1     -12.785  14.773  65.602  0.00  0.00    -0.213 OA
ENDROOT
BRANCH   1   3
ATOM      3  C   UNL     1     -10.945  16.047  64.866  0.00  0.00    +0.393 C 
ATOM      4  O   UNL     1     -10.001  16.840  65.481  0.00  0.00    -0.243 OA
ATOM      5  O   UNL     1     -11.687  16.430  63.919  0.00  0.00    -0.243 OA
ENDBRANCH   1   3
BRANCH   1   6
ATOM      6  C   UNL     1     -10.923  13.637  64.785  0.00  0.00    +0.156 C 
BRANCH   6   8
ATOM      7  O   UNL     1     -12.028  11.831  65.834  0.00  0.00    -0.246 OA
ATOM      8  C   UNL     1     -11.937  12.569  64.806  0.00  0.00    +0.368 C 
ATOM      9  O   UNL     1     -12.814  12.296  63.778  0.00  0.00    -0.246 OA
ENDBRANCH   6   8
ENDBRANCH   1   6
BRANCH   1  10
ATOM     10  C   UNL     1     -10.774  14.728  66.949  0.00  0.00    +0.156 C 
BRANCH  10  11
ATOM     11  C   UNL     1     -11.713  14.946  68.065  0.00  0.00    +0.368 C 
ATOM     12  O   UNL     1     -11.756  16.224  68.621  0.00  0.00    -0.246 OA
ATOM     13  O   UNL     1     -12.132  14.012  68.813  0.00  0.00    -0.246 OA
ENDBRANCH  10  11
ENDBRANCH   1  10
TORSDOF 5
ENDMDL
MODEL 4
REMARK VINA RESULT:      -4.6      1.775      3.789
REMARK  Name = 
REMARK  5 active torsions:
REMARK  status: ('A' for Active; 'I' for Inactive)
REMARK    1  A    between atoms: C_2  and  C_4
REMARK    2  A    between atoms: C_4  and  C_5
REMARK    3  A    between atoms: C_5  and  C_7
REMARK    4  A    between atoms: C_5  and  C_11
REMARK    5  A    between atoms: C_7  and  C_8
REMARK                            x       y       z     vdW  Elec       q    Type
REMARK                         _______ _______ _______ _____ _____    ______ ____
ROOT
ATOM      1  C   UNL     1     -10.909  14.880  65.578  0.00  0.00    +0.240 C 
ATOM      2  O   UNL     1     -10.061  14.107  64.815  0.00  0.00    -0.213 OA
ENDROOT
BRANCH   1   3
ATOM      3  C   UNL     1     -10.965  16.271  65.038  0.00  0.00    +0.393 C 
ATOM      4  O   UNL     1     -11.667  16.476  63.870  0.00  0.00    -0.243 OA
ATOM      5  O   UNL     1     -10.099  17.068  65.496  0.00  0.00    -0.243 OA
ENDBRANCH   1   3
BRANCH   1   6
ATOM      6  C   UNL     1     -10.285  14.986  66.961  0.00  0.00    +0.156 C 
BRANCH   6   8
ATOM      7  O   UNL     1      -7.931  14.788  66.924  0.00  0.00    -0.246 OA
ATOM      8  C   UNL     1      -9.046  14.191  67.014  0.00  0.00    +0.368 C 
ATOM      9  O   UNL     1      -8.995  12.820  67.155  0.00  0.00    -0.246 OA
ENDBRANCH   6   8
ENDBRANCH   1   6
BRANCH   1  10
ATOM     10  C   UNL     1     -12.282  14.308  65.757  0.00  0.00    +0.156 C 
BRANCH  10  11
ATOM     11  C   UNL     1     -12.357  12.853  65.525  0.00  0.00    +0.368 C 
ATOM     12  O   UNL     1     -13.190  12.414  64.497  0.00  0.00    -0.246 OA
ATOM     13  O   UNL     1     -12.093  11.993  66.418  0.00  0.00    -0.246 OA
ENDBRANCH  10  11
ENDBRANCH   1  10
TORSDOF 5
ENDMDL
MODEL 5
REMARK VINA RESULT:      -4.6      1.209      3.797
REMARK  Name = 
REMARK  5 active torsions:
REMARK  status: ('A' for Active; 'I' for Inactive)
REMARK    1  A    between atoms: C_2  and  C_4
REMARK    2  A    between atoms: C_4  and  C_5
REMARK    3  A    between atoms: C_5  and  C_7
REMARK    4  A    between atoms: C_5  and  C_11
REMARK    5  A    between atoms: C_7  and  C_8
REMARK                            x       y       z     vdW  Elec       q    Type
REMARK                         _______ _______ _______ _____ _____    ______ ____
ROOT
ATOM      1  C   UNL     1     -11.476  14.130  66.312  0.00  0.00    +0.240 C 
ATOM      2  O   UNL     1     -11.475  15.068  67.322  0.00  0.00    -0.213 OA
ENDROOT
BRANCH   1   3
ATOM      3  C   UNL     1     -11.058  12.798  66.844  0.00  0.00    +0.393 C 
ATOM      4  O   UNL     1      -9.927  12.223  66.309  0.00  0.00    -0.243 OA
ATOM      5  O   UNL     1     -11.945  12.164  67.483  0.00  0.00    -0.243 OA
ENDBRANCH   1   3
BRANCH   1   6
ATOM      6  C   UNL     1     -10.401  14.548  65.321  0.00  0.00    +0.156 C 
BRANCH   6   8
ATOM      7  O   UNL     1      -9.587  16.725  65.745  0.00  0.00    -0.246 OA
ATOM      8  C   UNL     1     -10.433  16.008  65.131  0.00  0.00    +0.368 C 
ATOM      9  O   UNL     1     -11.330  16.677  64.325  0.00  0.00    -0.246 OA
ENDBRANCH   6   8
ENDBRANCH   1   6
BRANCH   1  10
ATOM     10  C   UNL     1     -12.763  14.035  65.551  0.00  0.00    +0.156 C 
BRANCH  10  11
ATOM     11  C   UNL     1     -12.691  13.161  64.366  0.00  0.00    +0.368 C 
ATOM     12  O   UNL     1     -12.556  13.781  63.124  0.00  0.00    -0.246 OA
ATOM     13  O   UNL     1     -13.167  11.986  64.339  0.00  0.00    -0.246 OA
ENDBRANCH  10  11
ENDBRANCH   1  10
TORSDOF 5
ENDMDL
MODEL 6
REMARK VINA RESULT:      -4.5      1.982      3.675
REMARK  Name = 
REMARK  5 active torsions:
REMARK  status: ('A' for Active; 'I' for Inactive)
REMARK    1  A    between atoms: C_2  and  C_4
REMARK    2  A    between atoms: C_4  and  C_5
REMARK    3  A    between atoms: C_5  and  C_7
REMARK    4  A    between atoms: C_5  and  C_11
REMARK    5  A    between atoms: C_7  and  C_8
REMARK                            x       y       z     vdW  Elec       q    Type
REMARK                         _______ _______ _______ _____ _____    ______ ____
ROOT
ATOM      1  C   UNL     1     -11.011  15.053  65.849  0.00  0.00    +0.240 C 
ATOM      2  O   UNL     1      -9.872  14.311  65.623  0.00  0.00    -0.213 OA
ENDROOT
BRANCH   1   3
ATOM      3  C   UNL     1     -11.580  15.531  64.554  0.00  0.00    +0.393 C 
ATOM      4  O   UNL     1     -11.315  16.831  64.181  0.00  0.00    -0.243 OA
ATOM      5  O   UNL     1     -12.520  14.833  64.081  0.00  0.00    -0.243 OA
ENDBRANCH   1   3
BRANCH   1   6
ATOM      6  C   UNL     1     -10.582  16.298  66.610  0.00  0.00    +0.156 C 
BRANCH   6   8
ATOM      7  O   UNL     1     -11.532  16.597  68.753  0.00  0.00    -0.246 OA
ATOM      8  C   UNL     1     -10.628  16.040  68.060  0.00  0.00    +0.368 C 
ATOM      9  O   UNL     1      -9.749  15.226  68.743  0.00  0.00    -0.246 OA
ENDBRANCH   6   8
ENDBRANCH   1   6
BRANCH   1  10
ATOM     10  C   UNL     1     -12.049  14.364  66.680  0.00  0.00    +0.156 C 
BRANCH  10  11
ATOM     11  C   UNL     1     -11.792  12.926  66.883  0.00  0.00    +0.368 C 
ATOM     12  O   UNL     1     -12.230  12.054  65.886  0.00  0.00    -0.246 OA
ATOM     13  O   UNL     1     -11.621  12.404  68.026  0.00  0.00    -0.246 OA
ENDBRANCH  10  11
ENDBRANCH   1  10
TORSDOF 5
ENDMDL
MODEL 7
REMARK VINA RESULT:      -4.5      1.617      2.171
REMARK  Name = 
REMARK  5 active torsions:
REMARK  status: ('A' for Active; 'I' for Inactive)
REMARK    1  A    between atoms: C_2  and  C_4
REMARK    2  A    between atoms: C_4  and  C_5
REMARK    3  A    between atoms: C_5  and  C_7
REMARK    4  A    between atoms: C_5  and  C_11
REMARK    5  A    between atoms: C_7  and  C_8
REMARK                            x       y       z     vdW  Elec       q    Type
REMARK                         _______ _______ _______ _____ _____    ______ ____
ROOT
ATOM      1  C   UNL     1     -11.157  14.061  66.285  0.00  0.00    +0.240 C 
ATOM      2  O   UNL     1     -12.497  14.370  66.369  0.00  0.00    -0.213 OA
ENDROOT
BRANCH   1   3
ATOM      3  C   UNL     1     -10.974  12.584  66.165  0.00  0.00    +0.393 C 
ATOM      4  O   UNL     1     -11.938  11.773  66.723  0.00  0.00    -0.243 OA
ATOM      5  O   UNL     1      -9.807  12.202  65.870  0.00  0.00    -0.243 OA
ENDBRANCH   1   3
BRANCH   1   6
ATOM      6  C   UNL     1     -10.530  14.460  67.613  0.00  0.00    +0.156 C 
BRANCH   6   8
ATOM      7  O   UNL     1     -12.223  14.059  69.211  0.00  0.00    -0.246 OA
ATOM      8  C   UNL     1     -11.575  14.920  68.543  0.00  0.00    +0.368 C 
ATOM      9  O   UNL     1     -11.916  16.239  68.753  0.00  0.00    -0.246 OA
ENDBRANCH   6   8
ENDBRANCH   1   6
BRANCH   1  10
ATOM     10  C   UNL     1     -10.414  14.794  65.210  0.00  0.00    +0.156 C 
BRANCH  10  11
ATOM     11  C   UNL     1     -10.847  16.192  65.033  0.00  0.00    +0.368 C 
ATOM     12  O   UNL     1     -11.617  16.483  63.907  0.00  0.00    -0.246 OA
ATOM     13  O   UNL     1     -10.239  17.178  65.547  0.00  0.00    -0.246 OA
ENDBRANCH  10  11
ENDBRANCH   1  10
TORSDOF 5
ENDMDL
MODEL 8
REMARK VINA RESULT:      -4.5      1.670      4.022
REMARK  Name = 
REMARK  5 active torsions:
REMARK  status: ('A' for Active; 'I' for Inactive)
REMARK    1  A    between atoms: C_2  and  C_4
REMARK    2  A    between atoms: C_4  and  C_5
REMARK    3  A    between atoms: C_5  and  C_7
REMARK    4  A    between atoms: C_5  and  C_11
REMARK    5  A    between atoms: C_7  and  C_8
REMARK                            x       y       z     vdW  Elec       q    Type
REMARK                         _______ _______ _______ _____ _____    ______ ____
ROOT
ATOM      1  C   UNL     1     -11.164  13.694  65.431  0.00  0.00    +0.240 C 
ATOM      2  O   UNL     1     -10.178  13.806  64.475  0.00  0.00    -0.213 OA
ENDROOT
BRANCH   1   3
ATOM      3  C   UNL     1     -12.498  13.532  64.780  0.00  0.00    +0.393 C 
ATOM      4  O   UNL     1     -12.521  13.275  63.426  0.00  0.00    -0.243 OA
ATOM      5  O   UNL     1     -13.482  13.974  65.436  0.00  0.00    -0.243 OA
ENDBRANCH   1   3
BRANCH   1   6
ATOM      6  C   UNL     1     -11.212  15.022  66.172  0.00  0.00    +0.156 C 
BRANCH   6   8
ATOM      7  O   UNL     1      -9.480  16.513  65.572  0.00  0.00    -0.246 OA
ATOM      8  C   UNL     1     -10.650  16.089  65.327  0.00  0.00    +0.368 C 
ATOM      9  O   UNL     1     -11.304  16.681  64.267  0.00  0.00    -0.246 OA
ENDBRANCH   6   8
ENDBRANCH   1   6
BRANCH   1  10
ATOM     10  C   UNL     1     -10.923  12.627  66.455  0.00  0.00    +0.156 C 
BRANCH  10  11
ATOM     11  C   UNL     1      -9.949  11.604  66.031  0.00  0.00    +0.368 C 
ATOM     12  O   UNL     1     -10.425  10.561  65.238  0.00  0.00    -0.246 OA
ATOM     13  O   UNL     1      -8.875  11.364  66.661  0.00  0.00    -0.246 OA
ENDBRANCH  10  11
ENDBRANCH   1  10
TORSDOF 5
ENDMDL
MODEL 9
REMARK VINA RESULT:      -4.5      1.134      3.772
REMARK  Name = 
REMARK  5 active torsions:
REMARK  status: ('A' for Active; 'I' for Inactive)
REMARK    1  A    between atoms: C_2  and  C_4
REMARK    2  A    between atoms: C_4  and  C_5
REMARK    3  A    between atoms: C_5  and  C_7
REMARK    4  A    between atoms: C_5  and  C_11
REMARK    5  A    between atoms: C_7  and  C_8
REMARK                            x       y       z     vdW  Elec       q    Type
REMARK                         _______ _______ _______ _____ _____    ______ ____
ROOT
ATOM      1  C   UNL     1     -11.160  13.576  66.435  0.00  0.00    +0.240 C 
ATOM      2  O   UNL     1     -12.281  14.319  66.738  0.00  0.00    -0.213 OA
ENDROOT
BRANCH   1   3
ATOM      3  C   UNL     1     -10.959  12.506  67.458  0.00  0.00    +0.393 C 
ATOM      4  O   UNL     1     -11.998  11.629  67.678  0.00  0.00    -0.243 OA
ATOM      5  O   UNL     1     -10.006  12.697  68.265  0.00  0.00    -0.243 OA
ENDBRANCH   1   3
BRANCH   1   6
ATOM      6  C   UNL     1      -9.966  14.510  66.557  0.00  0.00    +0.156 C 
BRANCH   6   8
ATOM      7  O   UNL     1     -10.512  16.745  67.095  0.00  0.00    -0.246 OA
ATOM      8  C   UNL     1     -10.360  15.879  66.182  0.00  0.00    +0.368 C 
ATOM      9  O   UNL     1     -10.585  16.308  64.891  0.00  0.00    -0.246 OA
ENDBRANCH   6   8
ENDBRANCH   1   6
BRANCH   1  10
ATOM     10  C   UNL     1     -11.140  13.014  65.047  0.00  0.00    +0.156 C 
BRANCH  10  11
ATOM     11  C   UNL     1     -12.408  13.190  64.314  0.00  0.00    +0.368 C 
ATOM     12  O   UNL     1     -13.298  12.117  64.315  0.00  0.00    -0.246 OA
ATOM     13  O   UNL     1     -12.554  14.019  63.366  0.00  0.00    -0.246 OA
ENDBRANCH  10  11
ENDBRANCH   1  10
TORSDOF 5
ENDMDL
