MODEL 1
REMARK VINA RESULT:      -6.4      0.000      0.000
REMARK  Name = 
REMARK  3 active torsions:
REMARK  status: ('A' for Active; 'I' for Inactive)
REMARK    1  A    between atoms: O_2  and  C_3
REMARK    2  A    between atoms: C_6  and  C_7
REMARK    3  A    between atoms: C_7  and  C_9
REMARK                            x       y       z     vdW  Elec       q    Type
REMARK                         _______ _______ _______ _____ _____    ______ ____
ROOT
ATOM      1  C   UNL     1     -12.134  13.443  65.188  0.00  0.00    +0.142 A 
ATOM      2  C   UNL     1     -11.928  14.562  64.393  0.00  0.00    +0.079 A 
ATOM      3  C   UNL     1     -11.235  15.627  64.901  0.00  0.00    +0.202 A 
ATOM      4  O   UNL     1     -11.294  16.834  64.200  0.00  0.00    -0.286 OA
ATOM      5  C   UNL     1     -10.698  15.659  66.180  0.00  0.00    +0.078 A 
ATOM      6  C   UNL     1     -10.997  14.559  66.974  0.00  0.00    +0.010 A 
ATOM      7  C   UNL     1     -11.800  13.518  66.525  0.00  0.00    +0.037 A 
ENDROOT
BRANCH   1   9
ATOM      8  C   UNL     1     -12.825  11.812  63.528  0.00  0.00    +0.252 C 
ATOM      9  O   UNL     1     -13.071  12.517  64.720  0.00  0.00    -0.471 OA
ENDBRANCH   1   9
BRANCH   5  10
ATOM     10  C   UNL     1      -9.434  16.390  66.329  0.00  0.00    +0.199 C 
ATOM     11  O   UNL     1      -8.389  15.710  66.090  0.00  0.00    -0.286 OA
BRANCH  10  12
ATOM     12  C   UNL     1      -9.364  17.708  66.972  0.00  0.00    +0.039 A 
ATOM     13  C   UNL     1      -8.327  18.539  66.564  0.00  0.00    +0.003 A 
ATOM     14  C   UNL     1      -8.269  19.875  66.888  0.00  0.00    +0.000 A 
ATOM     15  C   UNL     1      -9.432  20.486  67.271  0.00  0.00    +0.000 A 
ATOM     16  C   UNL     1     -10.469  19.724  67.749  0.00  0.00    +0.000 A 
ATOM     17  C   UNL     1     -10.508  18.386  67.376  0.00  0.00    +0.003 A 
ENDBRANCH  10  12
ENDBRANCH   5  10
TORSDOF 3
ENDMDL
MODEL 2
REMARK VINA RESULT:      -6.0      1.636      2.068
REMARK  Name = 
REMARK  3 active torsions:
REMARK  status: ('A' for Active; 'I' for Inactive)
REMARK    1  A    between atoms: O_2  and  C_3
REMARK    2  A    between atoms: C_6  and  C_7
REMARK    3  A    between atoms: C_7  and  C_9
REMARK                            x       y       z     vdW  Elec       q    Type
REMARK                         _______ _______ _______ _____ _____    ______ ____
ROOT
ATOM      1  C   UNL     1     -11.932  13.921  64.972  0.00  0.00    +0.142 A 
ATOM      2  C   UNL     1     -12.414  14.144  66.254  0.00  0.00    +0.079 A 
ATOM      3  C   UNL     1     -11.564  14.619  67.216  0.00  0.00    +0.202 A 
ATOM      4  O   UNL     1     -11.989  14.557  68.545  0.00  0.00    -0.286 OA
ATOM      5  C   UNL     1     -10.228  14.915  66.988  0.00  0.00    +0.078 A 
ATOM      6  C   UNL     1      -9.762  14.598  65.718  0.00  0.00    +0.010 A 
ATOM      7  C   UNL     1     -10.571  14.003  64.759  0.00  0.00    +0.037 A 
ENDROOT
BRANCH   1   9
ATOM      8  C   UNL     1     -12.257  12.056  63.451  0.00  0.00    +0.252 C 
ATOM      9  O   UNL     1     -12.761  13.186  64.120  0.00  0.00    -0.471 OA
ENDBRANCH   1   9
BRANCH   5  10
ATOM     10  C   UNL     1      -9.680  16.047  67.745  0.00  0.00    +0.199 C 
ATOM     11  O   UNL     1      -8.964  15.728  68.743  0.00  0.00    -0.286 OA
BRANCH  10  12
ATOM     12  C   UNL     1     -10.147  17.423  67.541  0.00  0.00    +0.039 A 
ATOM     13  C   UNL     1      -9.827  18.338  68.537  0.00  0.00    +0.003 A 
ATOM     14  C   UNL     1      -9.979  19.696  68.381  0.00  0.00    +0.000 A 
ATOM     15  C   UNL     1     -10.064  20.183  67.105  0.00  0.00    +0.000 A 
ATOM     16  C   UNL     1     -10.444  19.344  66.087  0.00  0.00    +0.000 A 
ATOM     17  C   UNL     1     -10.248  17.981  66.271  0.00  0.00    +0.003 A 
ENDBRANCH  10  12
ENDBRANCH   5  10
TORSDOF 3
ENDMDL
MODEL 3
REMARK VINA RESULT:      -5.8      1.668      2.527
REMARK  Name = 
REMARK  3 active torsions:
REMARK  status: ('A' for Active; 'I' for Inactive)
REMARK    1  A    between atoms: O_2  and  C_3
REMARK    2  A    between atoms: C_6  and  C_7
REMARK    3  A    between atoms: C_7  and  C_9
REMARK                            x       y       z     vdW  Elec       q    Type
REMARK                         _______ _______ _______ _____ _____    ______ ____
ROOT
ATOM      1  C   UNL     1     -11.581  12.911  66.586  0.00  0.00    +0.142 A 
ATOM      2  C   UNL     1     -11.868  13.964  67.444  0.00  0.00    +0.079 A 
ATOM      3  C   UNL     1     -11.313  15.192  67.206  0.00  0.00    +0.202 A 
ATOM      4  O   UNL     1     -11.378  16.142  68.229  0.00  0.00    -0.286 OA
ATOM      5  C   UNL     1     -10.478  15.468  66.134  0.00  0.00    +0.078 A 
ATOM      6  C   UNL     1     -10.146  14.371  65.347  0.00  0.00    +0.010 A 
ATOM      7  C   UNL     1     -10.597  13.090  65.635  0.00  0.00    +0.037 A 
ENDROOT
BRANCH   1   9
ATOM      8  C   UNL     1     -11.573  11.207  68.315  0.00  0.00    +0.252 C 
ATOM      9  O   UNL     1     -11.947  11.637  67.029  0.00  0.00    -0.471 OA
ENDBRANCH   1   9
BRANCH   5  10
ATOM     10  C   UNL     1     -10.587  16.816  65.563  0.00  0.00    +0.199 C 
ATOM     11  O   UNL     1     -11.221  16.884  64.465  0.00  0.00    -0.286 OA
BRANCH  10  12
ATOM     12  C   UNL     1      -9.793  17.944  66.065  0.00  0.00    +0.039 A 
ATOM     13  C   UNL     1     -10.505  19.066  66.473  0.00  0.00    +0.003 A 
ATOM     14  C   UNL     1      -9.933  20.096  67.183  0.00  0.00    +0.000 A 
ATOM     15  C   UNL     1      -8.761  19.839  67.841  0.00  0.00    +0.000 A 
ATOM     16  C   UNL     1      -7.978  18.785  67.438  0.00  0.00    +0.000 A 
ATOM     17  C   UNL     1      -8.598  17.751  66.748  0.00  0.00    +0.003 A 
ENDBRANCH  10  12
ENDBRANCH   5  10
TORSDOF 3
ENDMDL
MODEL 4
REMARK VINA RESULT:      -5.8      2.770      6.381
REMARK  Name = 
REMARK  3 active torsions:
REMARK  status: ('A' for Active; 'I' for Inactive)
REMARK    1  A    between atoms: O_2  and  C_3
REMARK    2  A    between atoms: C_6  and  C_7
REMARK    3  A    between atoms: C_7  and  C_9
REMARK                            x       y       z     vdW  Elec       q    Type
REMARK                         _______ _______ _______ _____ _____    ______ ____
ROOT
ATOM      1  C   UNL     1     -11.834  15.602  69.393  0.00  0.00    +0.142 A 
ATOM      2  C   UNL     1     -11.268  16.087  68.222  0.00  0.00    +0.079 A 
ATOM      3  C   UNL     1     -11.128  15.250  67.149  0.00  0.00    +0.202 A 
ATOM      4  O   UNL     1     -10.304  15.670  66.102  0.00  0.00    -0.286 OA
ATOM      5  C   UNL     1     -11.538  13.925  67.145  0.00  0.00    +0.078 A 
ATOM      6  C   UNL     1     -12.020  13.452  68.360  0.00  0.00    +0.010 A 
ATOM      7  C   UNL     1     -12.061  14.245  69.499  0.00  0.00    +0.037 A 
ENDROOT
BRANCH   1   9
ATOM      8  C   UNL     1     -12.078  15.920  71.788  0.00  0.00    +0.252 C 
ATOM      9  O   UNL     1     -11.698  16.411  70.526  0.00  0.00    -0.471 OA
ENDBRANCH   1   9
BRANCH   5  10
ATOM     10  C   UNL     1     -12.046  13.411  65.867  0.00  0.00    +0.199 C 
ATOM     11  O   UNL     1     -13.117  13.955  65.458  0.00  0.00    -0.286 OA
BRANCH  10  12
ATOM     12  C   UNL     1     -11.522  12.185  65.254  0.00  0.00    +0.039 A 
ATOM     13  C   UNL     1     -11.180  12.265  63.909  0.00  0.00    +0.003 A 
ATOM     14  C   UNL     1     -10.460  11.288  63.262  0.00  0.00    +0.000 A 
ATOM     15  C   UNL     1      -9.729  10.423  64.031  0.00  0.00    +0.000 A 
ATOM     16  C   UNL     1     -10.064  10.247  65.352  0.00  0.00    +0.000 A 
ATOM     17  C   UNL     1     -10.767  11.270  65.977  0.00  0.00    +0.003 A 
ENDBRANCH  10  12
ENDBRANCH   5  10
TORSDOF 3
ENDMDL
MODEL 5
REMARK VINA RESULT:      -5.7      1.834      2.451
REMARK  Name = 
REMARK  3 active torsions:
REMARK  status: ('A' for Active; 'I' for Inactive)
REMARK    1  A    between atoms: O_2  and  C_3
REMARK    2  A    between atoms: C_6  and  C_7
REMARK    3  A    between atoms: C_7  and  C_9
REMARK                            x       y       z     vdW  Elec       q    Type
REMARK                         _______ _______ _______ _____ _____    ______ ____
ROOT
ATOM      1  C   UNL     1     -11.658  12.447  67.852  0.00  0.00    +0.142 A 
ATOM      2  C   UNL     1     -11.790  12.904  66.548  0.00  0.00    +0.079 A 
ATOM      3  C   UNL     1     -11.530  14.219  66.269  0.00  0.00    +0.202 A 
ATOM      4  O   UNL     1     -11.947  14.713  65.031  0.00  0.00    -0.286 OA
ATOM      5  C   UNL     1     -11.118  15.142  67.219  0.00  0.00    +0.078 A 
ATOM      6  C   UNL     1     -11.080  14.669  68.524  0.00  0.00    +0.010 A 
ATOM      7  C   UNL     1     -11.454  13.373  68.854  0.00  0.00    +0.037 A 
ENDROOT
BRANCH   1   9
ATOM      8  C   UNL     1     -11.883  10.532  69.327  0.00  0.00    +0.252 C 
ATOM      9  O   UNL     1     -12.195  11.185  68.121  0.00  0.00    -0.471 OA
ENDBRANCH   1   9
BRANCH   5  10
ATOM     10  C   UNL     1     -10.187  16.176  66.750  0.00  0.00    +0.199 C 
ATOM     11  O   UNL     1      -9.085  15.739  66.297  0.00  0.00    -0.286 OA
BRANCH  10  12
ATOM     12  C   UNL     1     -10.391  17.600  67.038  0.00  0.00    +0.039 A 
ATOM     13  C   UNL     1      -9.857  18.071  68.233  0.00  0.00    +0.003 A 
ATOM     14  C   UNL     1      -9.753  19.410  68.528  0.00  0.00    +0.000 A 
ATOM     15  C   UNL     1      -9.801  20.295  67.486  0.00  0.00    +0.000 A 
ATOM     16  C   UNL     1     -10.380  19.913  66.301  0.00  0.00    +0.000 A 
ATOM     17  C   UNL     1     -10.440  18.552  66.026  0.00  0.00    +0.003 A 
ENDBRANCH  10  12
ENDBRANCH   5  10
TORSDOF 3
ENDMDL
MODEL 6
REMARK VINA RESULT:      -5.7      1.878      2.419
REMARK  Name = 
REMARK  3 active torsions:
REMARK  status: ('A' for Active; 'I' for Inactive)
REMARK    1  A    between atoms: O_2  and  C_3
REMARK    2  A    between atoms: C_6  and  C_7
REMARK    3  A    between atoms: C_7  and  C_9
REMARK                            x       y       z     vdW  Elec       q    Type
REMARK                         _______ _______ _______ _____ _____    ______ ____
ROOT
ATOM      1  C   UNL     1     -12.077  14.408  64.863  0.00  0.00    +0.142 A 
ATOM      2  C   UNL     1     -12.235  13.852  66.125  0.00  0.00    +0.079 A 
ATOM      3  C   UNL     1     -11.628  14.444  67.199  0.00  0.00    +0.202 A 
ATOM      4  O   UNL     1     -11.559  13.715  68.389  0.00  0.00    -0.286 OA
ATOM      5  C   UNL     1     -10.862  15.598  67.113  0.00  0.00    +0.078 A 
ATOM      6  C   UNL     1     -10.657  16.075  65.825  0.00  0.00    +0.010 A 
ATOM      7  C   UNL     1     -11.160  15.426  64.705  0.00  0.00    +0.037 A 
ENDROOT
BRANCH   1   9
ATOM      8  C   UNL     1     -11.840  12.391  63.532  0.00  0.00    +0.252 C 
ATOM      9  O   UNL     1     -12.483  13.616  63.785  0.00  0.00    -0.471 OA
ENDBRANCH   1   9
BRANCH   5  10
ATOM     10  C   UNL     1     -10.933  16.505  68.265  0.00  0.00    +0.199 C 
ATOM     11  O   UNL     1     -11.960  16.363  68.998  0.00  0.00    -0.286 OA
BRANCH  10  12
ATOM     12  C   UNL     1     -10.044  17.665  68.403  0.00  0.00    +0.039 A 
ATOM     13  C   UNL     1      -8.685  17.391  68.506  0.00  0.00    +0.003 A 
ATOM     14  C   UNL     1      -7.717  18.363  68.398  0.00  0.00    +0.000 A 
ATOM     15  C   UNL     1      -8.063  19.538  67.787  0.00  0.00    +0.000 A 
ATOM     16  C   UNL     1      -9.386  19.898  67.717  0.00  0.00    +0.000 A 
ATOM     17  C   UNL     1     -10.332  18.884  67.801  0.00  0.00    +0.003 A 
ENDBRANCH  10  12
ENDBRANCH   5  10
TORSDOF 3
ENDMDL
MODEL 7
REMARK VINA RESULT:      -5.6      2.111      6.271
REMARK  Name = 
REMARK  3 active torsions:
REMARK  status: ('A' for Active; 'I' for Inactive)
REMARK    1  A    between atoms: O_2  and  C_3
REMARK    2  A    between atoms: C_6  and  C_7
REMARK    3  A    between atoms: C_7  and  C_9
REMARK                            x       y       z     vdW  Elec       q    Type
REMARK                         _______ _______ _______ _____ _____    ______ ____
ROOT
ATOM      1  C   UNL     1     -10.937  16.887  68.038  0.00  0.00    +0.142 A 
ATOM      2  C   UNL     1     -10.406  16.765  66.761  0.00  0.00    +0.079 A 
ATOM      3  C   UNL     1     -10.575  15.594  66.074  0.00  0.00    +0.202 A 
ATOM      4  O   UNL     1      -9.794  15.394  64.932  0.00  0.00    -0.286 OA
ATOM      5  C   UNL     1     -11.270  14.501  66.570  0.00  0.00    +0.078 A 
ATOM      6  C   UNL     1     -11.713  14.629  67.881  0.00  0.00    +0.010 A 
ATOM      7  C   UNL     1     -11.451  15.759  68.644  0.00  0.00    +0.037 A 
ENDROOT
BRANCH   1   9
ATOM      8  C   UNL     1      -9.286  18.615  68.464  0.00  0.00    +0.252 C 
ATOM      9  O   UNL     1     -10.501  17.984  68.786  0.00  0.00    -0.471 OA
ENDBRANCH   1   9
BRANCH   5  10
ATOM     10  C   UNL     1     -12.015  13.710  65.583  0.00  0.00    +0.199 C 
ATOM     11  O   UNL     1     -13.184  14.134  65.327  0.00  0.00    -0.286 OA
BRANCH  10  12
ATOM     12  C   UNL     1     -11.563  12.386  65.140  0.00  0.00    +0.039 A 
ATOM     13  C   UNL     1     -11.180  12.279  63.808  0.00  0.00    +0.003 A 
ATOM     14  C   UNL     1     -10.513  11.184  63.308  0.00  0.00    +0.000 A 
ATOM     15  C   UNL     1      -9.865  10.374  64.201  0.00  0.00    +0.000 A 
ATOM     16  C   UNL     1     -10.246  10.383  65.520  0.00  0.00    +0.000 A 
ATOM     17  C   UNL     1     -10.892  11.518  65.994  0.00  0.00    +0.003 A 
ENDBRANCH  10  12
ENDBRANCH   5  10
TORSDOF 3
ENDMDL
MODEL 8
REMARK VINA RESULT:      -5.6      2.610      6.670
REMARK  Name = 
REMARK  3 active torsions:
REMARK  status: ('A' for Active; 'I' for Inactive)
REMARK    1  A    between atoms: O_2  and  C_3
REMARK    2  A    between atoms: C_6  and  C_7
REMARK    3  A    between atoms: C_7  and  C_9
REMARK                            x       y       z     vdW  Elec       q    Type
REMARK                         _______ _______ _______ _____ _____    ______ ____
ROOT
ATOM      1  C   UNL     1     -10.707  16.256  65.425  0.00  0.00    +0.142 A 
ATOM      2  C   UNL     1     -11.702  15.696  64.637  0.00  0.00    +0.079 A 
ATOM      3  C   UNL     1     -11.712  14.343  64.432  0.00  0.00    +0.202 A 
ATOM      4  O   UNL     1     -12.533  13.847  63.416  0.00  0.00    -0.286 OA
ATOM      5  C   UNL     1     -10.785  13.471  64.985  0.00  0.00    +0.078 A 
ATOM      6  C   UNL     1      -9.757  14.077  65.697  0.00  0.00    +0.010 A 
ATOM      7  C   UNL     1      -9.654  15.456  65.819  0.00  0.00    +0.037 A 
ENDROOT
BRANCH   1   9
ATOM      8  C   UNL     1     -10.146  18.359  66.503  0.00  0.00    +0.252 C 
ATOM      9  O   UNL     1     -10.587  17.648  65.372  0.00  0.00    -0.471 OA
ENDBRANCH   1   9
BRANCH   5  10
ATOM     10  C   UNL     1     -11.289  12.141  65.348  0.00  0.00    +0.199 C 
ATOM     11  O   UNL     1     -12.138  12.128  66.292  0.00  0.00    -0.286 OA
BRANCH  10  12
ATOM     12  C   UNL     1     -10.660  10.907  64.860  0.00  0.00    +0.039 A 
ATOM     13  C   UNL     1     -10.192  10.929  63.552  0.00  0.00    +0.003 A 
ATOM     14  C   UNL     1      -9.375   9.951  63.034  0.00  0.00    +0.000 A 
ATOM     15  C   UNL     1      -8.689   9.164  63.919  0.00  0.00    +0.000 A 
ATOM     16  C   UNL     1      -9.143   9.046  65.209  0.00  0.00    +0.000 A 
ATOM     17  C   UNL     1      -9.943  10.068  65.705  0.00  0.00    +0.003 A 
ENDBRANCH  10  12
ENDBRANCH   5  10
TORSDOF 3
ENDMDL
MODEL 9
REMARK VINA RESULT:      -5.6      3.746      4.749
REMARK  Name = 
REMARK  3 active torsions:
REMARK  status: ('A' for Active; 'I' for Inactive)
REMARK    1  A    between atoms: O_2  and  C_3
REMARK    2  A    between atoms: C_6  and  C_7
REMARK    3  A    between atoms: C_7  and  C_9
REMARK                            x       y       z     vdW  Elec       q    Type
REMARK                         _______ _______ _______ _____ _____    ______ ____
ROOT
ATOM      1  C   UNL     1     -10.871  13.960  65.819  0.00  0.00    +0.142 A 
ATOM      2  C   UNL     1     -10.585  15.270  66.177  0.00  0.00    +0.079 A 
ATOM      3  C   UNL     1     -10.880  15.697  67.444  0.00  0.00    +0.202 A 
ATOM      4  O   UNL     1     -10.856  17.073  67.686  0.00  0.00    -0.286 OA
ATOM      5  C   UNL     1     -11.442  14.888  68.420  0.00  0.00    +0.078 A 
ATOM      6  C   UNL     1     -11.791  13.611  67.999  0.00  0.00    +0.010 A 
ATOM      7  C   UNL     1     -11.615  13.189  66.688  0.00  0.00    +0.037 A 
ENDROOT
BRANCH   1   9
ATOM      8  C   UNL     1     -11.866  12.979  63.832  0.00  0.00    +0.252 C 
ATOM      9  O   UNL     1     -10.806  13.665  64.454  0.00  0.00    -0.471 OA
ENDBRANCH   1   9
BRANCH   5  10
ATOM     10  C   UNL     1     -11.011  15.149  69.799  0.00  0.00    +0.199 C 
ATOM     11  O   UNL     1      -9.755  15.230  69.963  0.00  0.00    -0.286 OA
BRANCH  10  12
ATOM     12  C   UNL     1     -11.931  15.045  70.939  0.00  0.00    +0.039 A 
ATOM     13  C   UNL     1     -11.505  15.622  72.130  0.00  0.00    +0.003 A 
ATOM     14  C   UNL     1     -12.340  15.820  73.204  0.00  0.00    +0.000 A 
ATOM     15  C   UNL     1     -13.688  15.821  72.968  0.00  0.00    +0.000 A 
ATOM     16  C   UNL     1     -14.177  15.205  71.843  0.00  0.00    +0.000 A 
ATOM     17  C   UNL     1     -13.310  15.050  70.768  0.00  0.00    +0.003 A 
ENDBRANCH  10  12
ENDBRANCH   5  10
TORSDOF 3
ENDMDL
