MODEL 1
REMARK VINA RESULT:      -7.1      0.000      0.000
REMARK  Name = 
REMARK  8 active torsions:
REMARK  status: ('A' for Active; 'I' for Inactive)
REMARK    1  A    between atoms: C_2  and  C_4
REMARK    2  A    between atoms: C_4  and  N_5
REMARK    3  A    between atoms: N_8  and  C_9
REMARK    4  A    between atoms: C_9  and  C_10
REMARK    5  A    between atoms: N_15  and  C_16
REMARK    6  A    between atoms: C_16  and  C_17
REMARK    7  A    between atoms: N_22  and  C_23
REMARK    8  A    between atoms: C_23  and  C_24
REMARK                            x       y       z     vdW  Elec       q    Type
REMARK                         _______ _______ _______ _____ _____    ______ ____
ROOT
ATOM      1  N   UNL     1     -10.291  16.434  67.638  0.00  0.00    -0.268 NA
ATOM      2  C   UNL     1     -11.144  15.432  67.028  0.00  0.00    +0.090 C 
ATOM      3  C   UNL     1     -10.394  14.774  65.898  0.00  0.00    +0.090 C 
ATOM      4  N   UNL     1     -10.601  13.343  65.886  0.00  0.00    -0.261 NA
ATOM      5  C   UNL     1     -10.464  12.854  67.256  0.00  0.00    +0.090 C 
ATOM      6  C   UNL     1     -11.701  12.062  67.563  0.00  0.00    +0.090 C 
ATOM      7  N   UNL     1     -11.872  11.734  68.943  0.00  0.00    -0.261 NA
ATOM      8  C   UNL     1     -11.276  12.648  69.867  0.00  0.00    +0.090 C 
ATOM      9  C   UNL     1     -12.330  13.639  70.347  0.00  0.00    +0.090 C 
ATOM     10  N   UNL     1     -11.655  14.894  70.510  0.00  0.00    -0.261 NA
ATOM     11  C   UNL     1     -11.838  15.820  69.432  0.00  0.00    +0.090 C 
ATOM     12  C   UNL     1     -10.468  16.374  69.087  0.00  0.00    +0.090 C 
ENDROOT
BRANCH   1  13
ATOM     13  C   UNL     1     -10.679  17.790  67.252  0.00  0.00    +0.105 C 
BRANCH  13  15
ATOM     14  C   UNL     1      -9.925  20.045  66.896  0.00  0.00    +0.037 C 
ATOM     15  C   UNL     1      -9.215  18.606  67.400  0.00  0.00    +0.168 C 
ATOM     16  O   UNL     1      -8.829  18.246  65.945  0.00  0.00    -0.222 OA
ENDBRANCH  13  15
ENDBRANCH   1  13
BRANCH   4  17
ATOM     17  C   UNL     1     -11.951  13.100  65.380  0.00  0.00    +0.188 C 
BRANCH  17  18
ATOM     18  C   UNL     1     -11.847  12.956  63.901  0.00  0.00    +0.381 C 
ATOM     19  O   UNL     1     -10.779  12.279  63.309  0.00  0.00    -0.244 OA
ATOM     20  O   UNL     1     -12.545  13.681  63.152  0.00  0.00    -0.244 OA
ENDBRANCH  17  18
ENDBRANCH   4  17
BRANCH  10  21
ATOM     21  C   UNL     1     -11.768  15.464  71.820  0.00  0.00    +0.188 C 
BRANCH  21  22
ATOM     22  C   UNL     1     -13.081  15.119  72.448  0.00  0.00    +0.381 C 
ATOM     23  O   UNL     1     -14.195  15.909  72.158  0.00  0.00    -0.244 OA
ATOM     24  O   UNL     1     -13.065  14.491  73.534  0.00  0.00    -0.244 OA
ENDBRANCH  21  22
ENDBRANCH  10  21
BRANCH   7  25
ATOM     25  C   UNL     1     -11.520  10.377  69.279  0.00  0.00    +0.188 C 
BRANCH  25  26
ATOM     26  C   UNL     1     -12.020  10.046  70.643  0.00  0.00    +0.381 C 
ATOM     27  O   UNL     1     -13.386  10.091  70.863  0.00  0.00    -0.244 OA
ATOM     28  O   UNL     1     -11.276   9.559  71.519  0.00  0.00    -0.244 OA
ENDBRANCH  25  26
ENDBRANCH   7  25
TORSDOF 8
ENDMDL
MODEL 2
REMARK VINA RESULT:      -6.8      1.228      6.072
REMARK  Name = 
REMARK  8 active torsions:
REMARK  status: ('A' for Active; 'I' for Inactive)
REMARK    1  A    between atoms: C_2  and  C_4
REMARK    2  A    between atoms: C_4  and  N_5
REMARK    3  A    between atoms: N_8  and  C_9
REMARK    4  A    between atoms: C_9  and  C_10
REMARK    5  A    between atoms: N_15  and  C_16
REMARK    6  A    between atoms: C_16  and  C_17
REMARK    7  A    between atoms: N_22  and  C_23
REMARK    8  A    between atoms: C_23  and  C_24
REMARK                            x       y       z     vdW  Elec       q    Type
REMARK                         _______ _______ _______ _____ _____    ______ ____
ROOT
ATOM      1  N   UNL     1     -12.118  14.765  70.475  0.00  0.00    -0.268 NA
ATOM      2  C   UNL     1     -11.256  13.723  69.949  0.00  0.00    +0.090 C 
ATOM      3  C   UNL     1     -12.014  12.420  69.942  0.00  0.00    +0.090 C 
ATOM      4  N   UNL     1     -11.778  11.676  68.726  0.00  0.00    -0.261 NA
ATOM      5  C   UNL     1     -11.879  12.603  67.600  0.00  0.00    +0.090 C 
ATOM      6  C   UNL     1     -10.620  12.455  66.797  0.00  0.00    +0.090 C 
ATOM      7  N   UNL     1     -10.416  13.471  65.814  0.00  0.00    -0.261 NA
ATOM      8  C   UNL     1     -11.013  14.736  66.110  0.00  0.00    +0.090 C 
ATOM      9  C   UNL     1      -9.971  15.649  66.744  0.00  0.00    +0.090 C 
ATOM     10  N   UNL     1     -10.669  16.436  67.719  0.00  0.00    -0.261 NA
ATOM     11  C   UNL     1     -10.525  15.983  69.072  0.00  0.00    +0.090 C 
ATOM     12  C   UNL     1     -11.913  15.978  69.687  0.00  0.00    +0.090 C 
ENDROOT
BRANCH   1  13
ATOM     13  C   UNL     1     -11.766  15.126  71.847  0.00  0.00    +0.105 C 
BRANCH  13  15
ATOM     14  C   UNL     1     -12.602  15.791  74.000  0.00  0.00    +0.037 C 
ATOM     15  C   UNL     1     -13.274  15.510  72.485  0.00  0.00    +0.168 C 
ATOM     16  O   UNL     1     -13.541  14.027  72.838  0.00  0.00    -0.222 OA
ENDBRANCH  13  15
ENDBRANCH   1  13
BRANCH   4  17
ATOM     17  C   UNL     1     -10.432  11.110  68.813  0.00  0.00    +0.188 C 
BRANCH  17  18
ATOM     18  C   UNL     1     -10.560   9.770  69.451  0.00  0.00    +0.381 C 
ATOM     19  O   UNL     1     -10.330   9.590  70.817  0.00  0.00    -0.244 OA
ATOM     20  O   UNL     1     -10.583   8.738  68.739  0.00  0.00    -0.244 OA
ENDBRANCH  17  18
ENDBRANCH   4  17
BRANCH  10  21
ATOM     21  C   UNL     1     -10.543  17.852  67.542  0.00  0.00    +0.188 C 
BRANCH  21  22
ATOM     22  C   UNL     1     -10.041  18.183  66.172  0.00  0.00    +0.381 C 
ATOM     23  O   UNL     1      -8.759  18.718  66.035  0.00  0.00    -0.244 OA
ATOM     24  O   UNL     1     -10.888  18.435  65.282  0.00  0.00    -0.244 OA
ENDBRANCH  21  22
ENDBRANCH  10  21
BRANCH   7  25
ATOM     25  C   UNL     1     -10.734  13.067  64.467  0.00  0.00    +0.188 C 
BRANCH  25  26
ATOM     26  C   UNL     1     -12.180  13.296  64.195  0.00  0.00    +0.381 C 
ATOM     27  O   UNL     1     -12.543  14.468  63.554  0.00  0.00    -0.244 OA
ATOM     28  O   UNL     1     -13.033  12.399  64.357  0.00  0.00    -0.244 OA
ENDBRANCH  25  26
ENDBRANCH   7  25
TORSDOF 8
ENDMDL
MODEL 3
REMARK VINA RESULT:      -6.3      1.502      7.782
REMARK  Name = 
REMARK  8 active torsions:
REMARK  status: ('A' for Active; 'I' for Inactive)
REMARK    1  A    between atoms: C_2  and  C_4
REMARK    2  A    between atoms: C_4  and  N_5
REMARK    3  A    between atoms: N_8  and  C_9
REMARK    4  A    between atoms: C_9  and  C_10
REMARK    5  A    between atoms: N_15  and  C_16
REMARK    6  A    between atoms: C_16  and  C_17
REMARK    7  A    between atoms: N_22  and  C_23
REMARK    8  A    between atoms: C_23  and  C_24
REMARK                            x       y       z     vdW  Elec       q    Type
REMARK                         _______ _______ _______ _____ _____    ______ ____
ROOT
ATOM      1  N   UNL     1     -11.410  11.533  69.999  0.00  0.00    -0.268 NA
ATOM      2  C   UNL     1     -12.186  12.753  69.885  0.00  0.00    +0.090 C 
ATOM      3  C   UNL     1     -12.239  13.426  71.232  0.00  0.00    +0.090 C 
ATOM      4  N   UNL     1     -12.059  14.856  71.117  0.00  0.00    -0.261 NA
ATOM      5  C   UNL     1     -10.944  15.101  70.205  0.00  0.00    +0.090 C 
ATOM      6  C   UNL     1     -11.441  16.047  69.152  0.00  0.00    +0.090 C 
ATOM      7  N   UNL     1     -10.577  16.190  68.022  0.00  0.00    -0.261 NA
ATOM      8  C   UNL     1      -9.758  15.054  67.733  0.00  0.00    +0.090 C 
ATOM      9  C   UNL     1     -10.428  14.210  66.656  0.00  0.00    +0.090 C 
ATOM     10  N   UNL     1     -10.132  12.844  66.978  0.00  0.00    -0.261 NA
ATOM     11  C   UNL     1     -11.191  12.139  67.638  0.00  0.00    +0.090 C 
ATOM     12  C   UNL     1     -10.568  11.404  68.812  0.00  0.00    +0.090 C 
ENDROOT
BRANCH   1  13
ATOM     13  C   UNL     1     -12.259  10.342  70.006  0.00  0.00    +0.105 C 
BRANCH  13  15
ATOM     14  C   UNL     1     -11.332   8.256  70.758  0.00  0.00    +0.037 C 
ATOM     15  C   UNL     1     -11.869   9.667  71.497  0.00  0.00    +0.168 C 
ATOM     16  O   UNL     1     -13.297   9.088  71.647  0.00  0.00    -0.222 OA
ENDBRANCH  13  15
ENDBRANCH   1  13
BRANCH   4  17
ATOM     17  C   UNL     1     -13.301  15.412  70.581  0.00  0.00    +0.188 C 
BRANCH  17  18
ATOM     18  C   UNL     1     -14.328  15.312  71.656  0.00  0.00    +0.381 C 
ATOM     19  O   UNL     1     -15.567  14.712  71.424  0.00  0.00    -0.244 OA
ATOM     20  O   UNL     1     -14.222  16.017  72.688  0.00  0.00    -0.244 OA
ENDBRANCH  17  18
ENDBRANCH   4  17
BRANCH  10  21
ATOM     21  C   UNL     1      -9.485  12.113  65.929  0.00  0.00    +0.188 C 
BRANCH  21  22
ATOM     22  C   UNL     1     -10.453  11.233  65.205  0.00  0.00    +0.381 C 
ATOM     23  O   UNL     1     -10.264   9.850  65.241  0.00  0.00    -0.244 OA
ATOM     24  O   UNL     1     -11.078  11.722  64.233  0.00  0.00    -0.244 OA
ENDBRANCH  21  22
ENDBRANCH  10  21
BRANCH   7  25
ATOM     25  C   UNL     1      -9.786  17.395  68.027  0.00  0.00    +0.188 C 
BRANCH  25  26
ATOM     26  C   UNL     1     -10.360  18.383  67.073  0.00  0.00    +0.381 C 
ATOM     27  O   UNL     1     -10.226  18.133  65.718  0.00  0.00    -0.244 OA
ATOM     28  O   UNL     1     -11.104  19.312  67.452  0.00  0.00    -0.244 OA
ENDBRANCH  25  26
ENDBRANCH   7  25
TORSDOF 8
ENDMDL
MODEL 4
REMARK VINA RESULT:      -6.3      1.648      5.456
REMARK  Name = 
REMARK  8 active torsions:
REMARK  status: ('A' for Active; 'I' for Inactive)
REMARK    1  A    between atoms: C_2  and  C_4
REMARK    2  A    between atoms: C_4  and  N_5
REMARK    3  A    between atoms: N_8  and  C_9
REMARK    4  A    between atoms: C_9  and  C_10
REMARK    5  A    between atoms: N_15  and  C_16
REMARK    6  A    between atoms: C_16  and  C_17
REMARK    7  A    between atoms: N_22  and  C_23
REMARK    8  A    between atoms: C_23  and  C_24
REMARK                            x       y       z     vdW  Elec       q    Type
REMARK                         _______ _______ _______ _____ _____    ______ ____
ROOT
ATOM      1  N   UNL     1     -10.583  15.690  67.889  0.00  0.00    -0.268 NA
ATOM      2  C   UNL     1     -10.714  15.309  69.282  0.00  0.00    +0.090 C 
ATOM      3  C   UNL     1     -11.947  15.961  69.853  0.00  0.00    +0.090 C 
ATOM      4  N   UNL     1     -12.688  15.050  70.696  0.00  0.00    -0.261 NA
ATOM      5  C   UNL     1     -12.777  13.764  70.004  0.00  0.00    +0.090 C 
ATOM      6  C   UNL     1     -12.276  12.720  70.958  0.00  0.00    +0.090 C 
ATOM      7  N   UNL     1     -12.032  11.442  70.368  0.00  0.00    -0.261 NA
ATOM      8  C   UNL     1     -11.691  11.464  68.979  0.00  0.00    +0.090 C 
ATOM      9  C   UNL     1     -10.176  11.417  68.832  0.00  0.00    +0.090 C 
ATOM     10  N   UNL     1      -9.859  12.237  67.698  0.00  0.00    -0.261 NA
ATOM     11  C   UNL     1      -9.394  13.554  68.020  0.00  0.00    +0.090 C 
ATOM     12  C   UNL     1     -10.152  14.521  67.126  0.00  0.00    +0.090 C 
ENDROOT
BRANCH   1  13
ATOM     13  C   UNL     1      -9.537  16.693  67.692  0.00  0.00    +0.105 C 
BRANCH  13  15
ATOM     14  C   UNL     1      -8.898  18.690  66.517  0.00  0.00    +0.037 C 
ATOM     15  C   UNL     1     -10.250  17.690  66.540  0.00  0.00    +0.168 C 
ATOM     16  O   UNL     1     -10.911  18.550  67.644  0.00  0.00    -0.222 OA
ENDBRANCH  13  15
ENDBRANCH   1  13
BRANCH   4  17
ATOM     17  C   UNL     1     -11.949  14.914  71.951  0.00  0.00    +0.188 C 
BRANCH  17  18
ATOM     18  C   UNL     1     -12.752  15.589  73.008  0.00  0.00    +0.381 C 
ATOM     19  O   UNL     1     -12.416  15.477  74.359  0.00  0.00    -0.244 OA
ATOM     20  O   UNL     1     -13.900  16.019  72.743  0.00  0.00    -0.244 OA
ENDBRANCH  17  18
ENDBRANCH   4  17
BRANCH  10  21
ATOM     21  C   UNL     1      -9.114  11.570  66.672  0.00  0.00    +0.188 C 
BRANCH  21  22
ATOM     22  C   UNL     1     -10.024  10.955  65.656  0.00  0.00    +0.381 C 
ATOM     23  O   UNL     1     -11.127  11.685  65.209  0.00  0.00    -0.244 OA
ATOM     24  O   UNL     1     -10.078   9.703  65.599  0.00  0.00    -0.244 OA
ENDBRANCH  21  22
ENDBRANCH  10  21
BRANCH   7  25
ATOM     25  C   UNL     1     -13.063  10.465  70.618  0.00  0.00    +0.188 C 
BRANCH  25  26
ATOM     26  C   UNL     1     -12.606   9.499  71.655  0.00  0.00    +0.381 C 
ATOM     27  O   UNL     1     -11.247   9.268  71.774  0.00  0.00    -0.244 OA
ATOM     28  O   UNL     1     -13.381   9.045  72.522  0.00  0.00    -0.244 OA
ENDBRANCH  25  26
ENDBRANCH   7  25
TORSDOF 8
ENDMDL
MODEL 5
REMARK VINA RESULT:      -6.0      1.812      6.063
REMARK  Name = 
REMARK  8 active torsions:
REMARK  status: ('A' for Active; 'I' for Inactive)
REMARK    1  A    between atoms: C_2  and  C_4
REMARK    2  A    between atoms: C_4  and  N_5
REMARK    3  A    between atoms: N_8  and  C_9
REMARK    4  A    between atoms: C_9  and  C_10
REMARK    5  A    between atoms: N_15  and  C_16
REMARK    6  A    between atoms: C_16  and  C_17
REMARK    7  A    between atoms: N_22  and  C_23
REMARK    8  A    between atoms: C_23  and  C_24
REMARK                            x       y       z     vdW  Elec       q    Type
REMARK                         _______ _______ _______ _____ _____    ______ ____
ROOT
ATOM      1  N   UNL     1     -11.842  14.579  69.350  0.00  0.00    -0.268 NA
ATOM      2  C   UNL     1     -11.023  13.454  68.942  0.00  0.00    +0.090 C 
ATOM      3  C   UNL     1     -11.813  12.183  69.121  0.00  0.00    +0.090 C 
ATOM      4  N   UNL     1     -11.630  11.283  68.005  0.00  0.00    -0.261 NA
ATOM      5  C   UNL     1     -11.739  12.062  66.772  0.00  0.00    +0.090 C 
ATOM      6  C   UNL     1     -10.507  11.776  65.964  0.00  0.00    +0.090 C 
ATOM      7  N   UNL     1     -10.306  12.651  64.854  0.00  0.00    -0.261 NA
ATOM      8  C   UNL     1     -10.861  13.961  65.000  0.00  0.00    +0.090 C 
ATOM      9  C   UNL     1      -9.779  14.917  65.485  0.00  0.00    +0.090 C 
ATOM     10  N   UNL     1     -10.429  15.842  66.368  0.00  0.00    -0.261 NA
ATOM     11  C   UNL     1     -10.259  15.561  67.764  0.00  0.00    +0.090 C 
ATOM     12  C   UNL     1     -11.629  15.675  68.408  0.00  0.00    +0.090 C 
ENDROOT
BRANCH   1  13
ATOM     13  C   UNL     1     -11.443  15.102  70.656  0.00  0.00    +0.105 C 
BRANCH  13  15
ATOM     14  C   UNL     1     -12.211  15.987  72.754  0.00  0.00    +0.037 C 
ATOM     15  C   UNL     1     -12.927  15.579  71.289  0.00  0.00    +0.168 C 
ATOM     16  O   UNL     1     -13.213  14.142  71.789  0.00  0.00    -0.222 OA
ENDBRANCH  13  15
ENDBRANCH   1  13
BRANCH   4  17
ATOM     17  C   UNL     1     -10.298  10.694  68.130  0.00  0.00    +0.188 C 
BRANCH  17  18
ATOM     18  C   UNL     1     -10.440   9.457  68.949  0.00  0.00    +0.381 C 
ATOM     19  O   UNL     1     -10.107   9.441  70.306  0.00  0.00    -0.244 OA
ATOM     20  O   UNL     1     -10.574   8.346  68.384  0.00  0.00    -0.244 OA
ENDBRANCH  17  18
ENDBRANCH   4  17
BRANCH  10  21
ATOM     21  C   UNL     1     -10.272  17.219  66.007  0.00  0.00    +0.188 C 
BRANCH  21  22
ATOM     22  C   UNL     1      -8.985  17.772  66.532  0.00  0.00    +0.381 C 
ATOM     23  O   UNL     1      -9.028  18.734  67.544  0.00  0.00    -0.244 OA
ATOM     24  O   UNL     1      -7.985  17.750  65.776  0.00  0.00    -0.244 OA
ENDBRANCH  21  22
ENDBRANCH  10  21
BRANCH   7  25
ATOM     25  C   UNL     1     -10.671  12.088  63.578  0.00  0.00    +0.188 C 
BRANCH  25  26
ATOM     26  C   UNL     1      -9.590  11.183  63.095  0.00  0.00    +0.381 C 
ATOM     27  O   UNL     1      -9.682   9.838  63.407  0.00  0.00    -0.244 OA
ATOM     28  O   UNL     1      -8.725  11.564  62.279  0.00  0.00    -0.244 OA
ENDBRANCH  25  26
ENDBRANCH   7  25
TORSDOF 8
ENDMDL
MODEL 6
REMARK VINA RESULT:      -5.8      2.320      6.397
REMARK  Name = 
REMARK  8 active torsions:
REMARK  status: ('A' for Active; 'I' for Inactive)
REMARK    1  A    between atoms: C_2  and  C_4
REMARK    2  A    between atoms: C_4  and  N_5
REMARK    3  A    between atoms: N_8  and  C_9
REMARK    4  A    between atoms: C_9  and  C_10
REMARK    5  A    between atoms: N_15  and  C_16
REMARK    6  A    between atoms: C_16  and  C_17
REMARK    7  A    between atoms: N_22  and  C_23
REMARK    8  A    between atoms: C_23  and  C_24
REMARK                            x       y       z     vdW  Elec       q    Type
REMARK                         _______ _______ _______ _____ _____    ______ ____
ROOT
ATOM      1  N   UNL     1     -12.318  13.584  69.718  0.00  0.00    -0.268 NA
ATOM      2  C   UNL     1     -11.314  12.538  69.757  0.00  0.00    +0.090 C 
ATOM      3  C   UNL     1     -11.980  11.236  70.118  0.00  0.00    +0.090 C 
ATOM      4  N   UNL     1     -11.476  10.142  69.318  0.00  0.00    -0.261 NA
ATOM      5  C   UNL     1     -11.417  10.589  67.927  0.00  0.00    +0.090 C 
ATOM      6  C   UNL     1     -10.023  10.321  67.441  0.00  0.00    +0.090 C 
ATOM      7  N   UNL     1      -9.697  10.937  66.194  0.00  0.00    -0.261 NA
ATOM      8  C   UNL     1     -10.411  12.141  65.903  0.00  0.00    +0.090 C 
ATOM      9  C   UNL     1      -9.562  13.341  66.304  0.00  0.00    +0.090 C 
ATOM     10  N   UNL     1     -10.476  14.331  66.797  0.00  0.00    -0.261 NA
ATOM     11  C   UNL     1     -10.563  14.410  68.226  0.00  0.00    +0.090 C 
ATOM     12  C   UNL     1     -12.040  14.453  68.577  0.00  0.00    +0.090 C 
ENDROOT
BRANCH   1  13
ATOM     13  C   UNL     1     -12.253  14.451  70.894  0.00  0.00    +0.105 C 
BRANCH  13  15
ATOM     14  C   UNL     1     -14.462  15.121  71.563  0.00  0.00    +0.037 C 
ATOM     15  C   UNL     1     -13.469  13.796  71.854  0.00  0.00    +0.168 C 
ATOM     16  O   UNL     1     -12.880  14.469  73.118  0.00  0.00    -0.222 OA
ENDBRANCH  13  15
ENDBRANCH   1  13
BRANCH   4  17
ATOM     17  C   UNL     1     -10.140   9.815  69.815  0.00  0.00    +0.188 C 
BRANCH  17  18
ATOM     18  C   UNL     1     -10.293   8.686  70.776  0.00  0.00    +0.381 C 
ATOM     19  O   UNL     1     -10.883   7.480  70.393  0.00  0.00    -0.244 OA
ATOM     20  O   UNL     1     -10.171   8.893  72.007  0.00  0.00    -0.244 OA
ENDBRANCH  17  18
ENDBRANCH   4  17
BRANCH  10  21
ATOM     21  C   UNL     1     -10.401  15.595  66.127  0.00  0.00    +0.188 C 
BRANCH  21  22
ATOM     22  C   UNL     1     -11.248  15.605  64.895  0.00  0.00    +0.381 C 
ATOM     23  O   UNL     1     -11.317  16.774  64.133  0.00  0.00    -0.244 OA
ATOM     24  O   UNL     1     -12.210  14.802  64.836  0.00  0.00    -0.244 OA
ENDBRANCH  21  22
ENDBRANCH  10  21
BRANCH   7  25
ATOM     25  C   UNL     1      -9.731  10.045  65.063  0.00  0.00    +0.188 C 
BRANCH  25  26
ATOM     26  C   UNL     1      -8.359   9.542  64.772  0.00  0.00    +0.381 C 
ATOM     27  O   UNL     1      -7.285  10.335  65.137  0.00  0.00    -0.244 OA
ATOM     28  O   UNL     1      -8.152   8.371  64.389  0.00  0.00    -0.244 OA
ENDBRANCH  25  26
ENDBRANCH   7  25
TORSDOF 8
ENDMDL
MODEL 7
REMARK VINA RESULT:      -5.8      1.181      5.459
REMARK  Name = 
REMARK  8 active torsions:
REMARK  status: ('A' for Active; 'I' for Inactive)
REMARK    1  A    between atoms: C_2  and  C_4
REMARK    2  A    between atoms: C_4  and  N_5
REMARK    3  A    between atoms: N_8  and  C_9
REMARK    4  A    between atoms: C_9  and  C_10
REMARK    5  A    between atoms: N_15  and  C_16
REMARK    6  A    between atoms: C_16  and  C_17
REMARK    7  A    between atoms: N_22  and  C_23
REMARK    8  A    between atoms: C_23  and  C_24
REMARK                            x       y       z     vdW  Elec       q    Type
REMARK                         _______ _______ _______ _____ _____    ______ ____
ROOT
ATOM      1  N   UNL     1     -10.977  13.223  66.050  0.00  0.00    -0.268 NA
ATOM      2  C   UNL     1     -10.243  14.131  66.911  0.00  0.00    +0.090 C 
ATOM      3  C   UNL     1     -10.394  15.534  66.383  0.00  0.00    +0.090 C 
ATOM      4  N   UNL     1     -10.615  16.482  67.452  0.00  0.00    -0.261 NA
ATOM      5  C   UNL     1     -11.610  15.916  68.361  0.00  0.00    +0.090 C 
ATOM      6  C   UNL     1     -11.018  15.961  69.739  0.00  0.00    +0.090 C 
ATOM      7  N   UNL     1     -11.731  15.204  70.719  0.00  0.00    -0.261 NA
ATOM      8  C   UNL     1     -12.459  14.082  70.214  0.00  0.00    +0.090 C 
ATOM      9  C   UNL     1     -11.619  12.821  70.378  0.00  0.00    +0.090 C 
ATOM     10  N   UNL     1     -11.900  12.002  69.234  0.00  0.00    -0.261 NA
ATOM     11  C   UNL     1     -10.909  12.055  68.200  0.00  0.00    +0.090 C 
ATOM     12  C   UNL     1     -11.650  12.233  66.887  0.00  0.00    +0.090 C 
ENDROOT
BRANCH   1  13
ATOM     13  C   UNL     1     -10.089  12.458  65.176  0.00  0.00    +0.105 C 
BRANCH  13  15
ATOM     14  C   UNL     1     -10.005  11.231  63.111  0.00  0.00    +0.037 C 
ATOM     15  C   UNL     1     -11.198  11.619  64.230  0.00  0.00    +0.168 C 
ATOM     16  O   UNL     1     -11.560  12.907  63.452  0.00  0.00    -0.222 OA
ENDBRANCH  13  15
ENDBRANCH   1  13
BRANCH   4  17
ATOM     17  C   UNL     1      -9.338  16.677  68.136  0.00  0.00    +0.188 C 
BRANCH  17  18
ATOM     18  C   UNL     1      -8.874  18.056  67.818  0.00  0.00    +0.381 C 
ATOM     19  O   UNL     1      -8.801  19.044  68.802  0.00  0.00    -0.244 OA
ATOM     20  O   UNL     1      -8.823  18.438  66.624  0.00  0.00    -0.244 OA
ENDBRANCH  17  18
ENDBRANCH   4  17
BRANCH  10  21
ATOM     21  C   UNL     1     -12.373  10.687  69.547  0.00  0.00    +0.188 C 
BRANCH  21  22
ATOM     22  C   UNL     1     -12.069  10.325  70.966  0.00  0.00    +0.381 C 
ATOM     23  O   UNL     1     -10.904   9.608  71.244  0.00  0.00    -0.244 OA
ATOM     24  O   UNL     1     -13.031  10.228  71.766  0.00  0.00    -0.244 OA
ENDBRANCH  21  22
ENDBRANCH  10  21
BRANCH   7  25
ATOM     25  C   UNL     1     -12.564  15.995  71.590  0.00  0.00    +0.188 C 
BRANCH  25  26
ATOM     26  C   UNL     1     -13.769  15.214  71.986  0.00  0.00    +0.381 C 
ATOM     27  O   UNL     1     -13.632  14.272  72.991  0.00  0.00    -0.244 OA
ATOM     28  O   UNL     1     -14.912  15.509  71.578  0.00  0.00    -0.244 OA
ENDBRANCH  25  26
ENDBRANCH   7  25
TORSDOF 8
ENDMDL
MODEL 8
REMARK VINA RESULT:      -5.8      2.307      6.355
REMARK  Name = 
REMARK  8 active torsions:
REMARK  status: ('A' for Active; 'I' for Inactive)
REMARK    1  A    between atoms: C_2  and  C_4
REMARK    2  A    between atoms: C_4  and  N_5
REMARK    3  A    between atoms: N_8  and  C_9
REMARK    4  A    between atoms: C_9  and  C_10
REMARK    5  A    between atoms: N_15  and  C_16
REMARK    6  A    between atoms: C_16  and  C_17
REMARK    7  A    between atoms: N_22  and  C_23
REMARK    8  A    between atoms: C_23  and  C_24
REMARK                            x       y       z     vdW  Elec       q    Type
REMARK                         _______ _______ _______ _____ _____    ______ ____
ROOT
ATOM      1  N   UNL     1     -11.767  10.483  69.809  0.00  0.00    -0.268 NA
ATOM      2  C   UNL     1     -10.673  10.782  68.905  0.00  0.00    +0.090 C 
ATOM      3  C   UNL     1     -10.627   9.728  67.829  0.00  0.00    +0.090 C 
ATOM      4  N   UNL     1     -10.382  10.308  66.527  0.00  0.00    -0.261 NA
ATOM      5  C   UNL     1     -11.243  11.482  66.385  0.00  0.00    +0.090 C 
ATOM      6  C   UNL     1     -10.357  12.630  66.001  0.00  0.00    +0.090 C 
ATOM      7  N   UNL     1     -10.976  13.915  66.082  0.00  0.00    -0.261 NA
ATOM      8  C   UNL     1     -12.029  14.025  67.042  0.00  0.00    +0.090 C 
ATOM      9  C   UNL     1     -11.475  14.612  68.334  0.00  0.00    +0.090 C 
ATOM     10  N   UNL     1     -12.183  13.968  69.403  0.00  0.00    -0.261 NA
ATOM     11  C   UNL     1     -11.469  12.901  70.040  0.00  0.00    +0.090 C 
ATOM     12  C   UNL     1     -12.433  11.734  70.162  0.00  0.00    +0.090 C 
ENDROOT
BRANCH   1  13
ATOM     13  C   UNL     1     -11.294   9.922  71.074  0.00  0.00    +0.105 C 
BRANCH  13  15
ATOM     14  C   UNL     1     -13.281   8.938  72.002  0.00  0.00    +0.037 C 
ATOM     15  C   UNL     1     -12.007   8.398  71.046  0.00  0.00    +0.168 C 
ATOM     16  O   UNL     1     -11.206   7.963  72.297  0.00  0.00    -0.222 OA
ENDBRANCH  13  15
ENDBRANCH   1  13
BRANCH   4  17
ATOM     17  C   UNL     1      -8.972  10.690  66.476  0.00  0.00    +0.188 C 
BRANCH  17  18
ATOM     18  C   UNL     1      -8.273   9.681  65.632  0.00  0.00    +0.381 C 
ATOM     19  O   UNL     1      -7.500   8.666  66.201  0.00  0.00    -0.244 OA
ATOM     20  O   UNL     1      -8.121   9.890  64.405  0.00  0.00    -0.244 OA
ENDBRANCH  17  18
ENDBRANCH   4  17
BRANCH  10  21
ATOM     21  C   UNL     1     -12.852  14.864  70.298  0.00  0.00    +0.188 C 
BRANCH  21  22
ATOM     22  C   UNL     1     -11.875  15.596  71.161  0.00  0.00    +0.381 C 
ATOM     23  O   UNL     1     -11.788  15.261  72.514  0.00  0.00    -0.244 OA
ATOM     24  O   UNL     1     -11.534  16.752  70.813  0.00  0.00    -0.244 OA
ENDBRANCH  21  22
ENDBRANCH  10  21
BRANCH   7  25
ATOM     25  C   UNL     1     -11.391  14.456  64.813  0.00  0.00    +0.188 C 
BRANCH  25  26
ATOM     26  C   UNL     1     -11.044  15.903  64.740  0.00  0.00    +0.381 C 
ATOM     27  O   UNL     1      -9.926  16.338  65.428  0.00  0.00    -0.244 OA
ATOM     28  O   UNL     1     -11.613  16.679  63.943  0.00  0.00    -0.244 OA
ENDBRANCH  25  26
ENDBRANCH   7  25
TORSDOF 8
ENDMDL
MODEL 9
REMARK VINA RESULT:      -5.8      2.196      5.304
REMARK  Name = 
REMARK  8 active torsions:
REMARK  status: ('A' for Active; 'I' for Inactive)
REMARK    1  A    between atoms: C_2  and  C_4
REMARK    2  A    between atoms: C_4  and  N_5
REMARK    3  A    between atoms: N_8  and  C_9
REMARK    4  A    between atoms: C_9  and  C_10
REMARK    5  A    between atoms: N_15  and  C_16
REMARK    6  A    between atoms: C_16  and  C_17
REMARK    7  A    between atoms: N_22  and  C_23
REMARK    8  A    between atoms: C_23  and  C_24
REMARK                            x       y       z     vdW  Elec       q    Type
REMARK                         _______ _______ _______ _____ _____    ______ ____
ROOT
ATOM      1  N   UNL     1     -11.702  13.829  69.743  0.00  0.00    -0.268 NA
ATOM      2  C   UNL     1     -11.865  13.858  68.302  0.00  0.00    +0.090 C 
ATOM      3  C   UNL     1     -11.134  15.056  67.752  0.00  0.00    +0.090 C 
ATOM      4  N   UNL     1     -10.415  14.729  66.541  0.00  0.00    -0.261 NA
ATOM      5  C   UNL     1      -9.715  13.463  66.757  0.00  0.00    +0.090 C 
ATOM      6  C   UNL     1     -10.103  12.552  65.630  0.00  0.00    +0.090 C 
ATOM      7  N   UNL     1      -9.735  11.184  65.816  0.00  0.00    -0.261 NA
ATOM      8  C   UNL     1      -9.646  10.754  67.176  0.00  0.00    +0.090 C 
ATOM      9  C   UNL     1     -10.951  10.080  67.578  0.00  0.00    +0.090 C 
ATOM     10  N   UNL     1     -11.174  10.426  68.952  0.00  0.00    -0.261 NA
ATOM     11  C   UNL     1     -12.115  11.488  69.159  0.00  0.00    +0.090 C 
ATOM     12  C   UNL     1     -11.488  12.445  70.158  0.00  0.00    +0.090 C 
ENDROOT
BRANCH   1  13
ATOM     13  C   UNL     1     -12.912  14.263  70.439  0.00  0.00    +0.105 C 
BRANCH  13  15
ATOM     14  C   UNL     1     -13.770  15.451  72.345  0.00  0.00    +0.037 C 
ATOM     15  C   UNL     1     -12.273  14.838  71.885  0.00  0.00    +0.168 C 
ATOM     16  O   UNL     1     -11.888  16.182  71.220  0.00  0.00    -0.222 OA
ENDBRANCH  13  15
ENDBRANCH   1  13
BRANCH   4  17
ATOM     17  C   UNL     1     -11.399  14.601  65.468  0.00  0.00    +0.188 C 
BRANCH  17  18
ATOM     18  C   UNL     1     -11.327  15.847  64.655  0.00  0.00    +0.381 C 
ATOM     19  O   UNL     1     -10.472  16.895  65.004  0.00  0.00    -0.244 OA
ATOM     20  O   UNL     1     -12.231  16.104  63.824  0.00  0.00    -0.244 OA
ENDBRANCH  17  18
ENDBRANCH   4  17
BRANCH  10  21
ATOM     21  C   UNL     1     -11.329   9.306  69.831  0.00  0.00    +0.188 C 
BRANCH  21  22
ATOM     22  C   UNL     1     -10.126   9.130  70.701  0.00  0.00    +0.381 C 
ATOM     23  O   UNL     1     -10.309   8.813  72.049  0.00  0.00    -0.244 OA
ATOM     24  O   UNL     1      -9.069   9.720  70.369  0.00  0.00    -0.244 OA
ENDBRANCH  21  22
ENDBRANCH  10  21
BRANCH   7  25
ATOM     25  C   UNL     1      -8.562  10.780  65.081  0.00  0.00    +0.188 C 
BRANCH  25  26
ATOM     26  C   UNL     1      -8.928   9.753  64.066  0.00  0.00    +0.381 C 
ATOM     27  O   UNL     1      -8.605   8.433  64.331  0.00  0.00    -0.244 OA
ATOM     28  O   UNL     1      -9.665  10.018  63.094  0.00  0.00    -0.244 OA
ENDBRANCH  25  26
ENDBRANCH   7  25
TORSDOF 8
ENDMDL
