MODEL 1
REMARK VINA RESULT:      -6.9      0.000      0.000
REMARK  Name = 
REMARK  7 active torsions:
REMARK  status: ('A' for Active; 'I' for Inactive)
REMARK    1  A    between atoms: C_4  and  C_5
REMARK    2  A    between atoms: C_5  and  O_7
REMARK    3  A    between atoms: O_7  and  C_8
REMARK    4  A    between atoms: C_8  and  C_9
REMARK    5  A    between atoms: C_13  and  O_14
REMARK    6  A    between atoms: O_14  and  C_15
REMARK    7  A    between atoms: C_22  and  C_23
REMARK                            x       y       z     vdW  Elec       q    Type
REMARK                         _______ _______ _______ _____ _____    ______ ____
ROOT
ATOM      1  C   UNL     1     -11.338  15.979  69.596  0.00  0.00    +0.235 C 
ENDROOT
BRANCH   1   2
ATOM      2  C   UNL     1     -11.851  14.609  69.535  0.00  0.00    +0.024 A 
ATOM      3  C   UNL     1     -11.768  13.908  68.358  0.00  0.00    +0.037 A 
ATOM      4  C   UNL     1     -11.760  12.520  68.299  0.00  0.00    +0.145 A 
ATOM      5  C   UNL     1     -12.021  11.877  69.503  0.00  0.00    +0.037 A 
ATOM      6  C   UNL     1     -12.318  12.575  70.655  0.00  0.00    +0.003 A 
ATOM      7  C   UNL     1     -11.966  13.901  70.717  0.00  0.00    -0.000 A 
BRANCH   4   8
ATOM      8  O   UNL     1     -10.992  11.843  67.347  0.00  0.00    -0.454 OA
BRANCH   8   9
ATOM      9  C   UNL     1     -10.941  12.364  66.050  0.00  0.00    +0.145 A 
ATOM     10  C   UNL     1      -9.945  11.842  65.234  0.00  0.00    +0.037 A 
ATOM     11  C   UNL     1     -10.069  11.821  63.854  0.00  0.00    +0.003 A 
ATOM     12  C   UNL     1     -11.325  11.853  63.308  0.00  0.00    +0.000 A 
ATOM     13  C   UNL     1     -12.352  12.381  64.072  0.00  0.00    +0.003 A 
ATOM     14  C   UNL     1     -12.165  12.574  65.428  0.00  0.00    +0.037 A 
ENDBRANCH   8   9
ENDBRANCH   4   8
ENDBRANCH   1   2
BRANCH   1  15
ATOM     15  O   UNL     1     -11.670  16.665  68.386  0.00  0.00    -0.443 OA
BRANCH  15  16
ATOM     16  C   UNL     1     -10.685  17.375  67.833  0.00  0.00    +0.317 C 
ATOM     17  O   UNL     1     -10.679  18.633  67.818  0.00  0.00    -0.250 OA
BRANCH  16  21
ATOM     18  C   UNL     1      -9.335  15.861  66.179  0.00  0.00    +0.001 C 
ATOM     19  C   UNL     1      -9.318  16.013  66.223  0.00  0.00    +0.015 C 
ATOM     20  C   UNL     1      -8.766  17.640  66.353  0.00  0.00    +0.035 C 
ATOM     21  C   UNL     1      -9.194  16.748  67.762  0.00  0.00    +0.103 C 
ATOM     22  C   UNL     1     -10.608  16.000  65.559  0.00  0.00    +0.001 C 
BRANCH  20  23
ATOM     23  C   UNL     1      -7.199  17.207  66.399  0.00  0.00    -0.003 C 
ATOM     24  C   UNL     1      -6.472  18.177  65.858  0.00  0.00    +0.111 C 
ATOM     25 CL   UNL     1      -7.020  19.798  65.543  0.00  0.00    -0.070 Cl
ATOM     26 CL   UNL     1      -4.832  17.724  65.386  0.00  0.00    -0.070 Cl
ENDBRANCH  20  23
ENDBRANCH  16  21
ENDBRANCH  15  16
ENDBRANCH   1  15
TORSDOF 7
ENDMDL
MODEL 2
REMARK VINA RESULT:      -6.9      4.436      7.949
REMARK  Name = 
REMARK  7 active torsions:
REMARK  status: ('A' for Active; 'I' for Inactive)
REMARK    1  A    between atoms: C_4  and  C_5
REMARK    2  A    between atoms: C_5  and  O_7
REMARK    3  A    between atoms: O_7  and  C_8
REMARK    4  A    between atoms: C_8  and  C_9
REMARK    5  A    between atoms: C_13  and  O_14
REMARK    6  A    between atoms: O_14  and  C_15
REMARK    7  A    between atoms: C_22  and  C_23
REMARK                            x       y       z     vdW  Elec       q    Type
REMARK                         _______ _______ _______ _____ _____    ______ ____
ROOT
ATOM      1  C   UNL     1     -11.375  12.207  66.557  0.00  0.00    +0.235 C 
ENDROOT
BRANCH   1   2
ATOM      2  C   UNL     1     -10.928  13.546  66.946  0.00  0.00    +0.024 A 
ATOM      3  C   UNL     1     -11.825  14.426  67.497  0.00  0.00    +0.037 A 
ATOM      4  C   UNL     1     -11.449  15.481  68.318  0.00  0.00    +0.145 A 
ATOM      5  C   UNL     1     -10.080  15.702  68.403  0.00  0.00    +0.037 A 
ATOM      6  C   UNL     1      -9.172  14.955  67.682  0.00  0.00    +0.003 A 
ATOM      7  C   UNL     1      -9.581  13.740  67.190  0.00  0.00    -0.000 A 
BRANCH   4   8
ATOM      8  O   UNL     1     -12.247  15.877  69.396  0.00  0.00    -0.454 OA
BRANCH   8   9
ATOM      9  C   UNL     1     -12.026  15.269  70.636  0.00  0.00    +0.145 A 
ATOM     10  C   UNL     1     -11.862  16.138  71.708  0.00  0.00    +0.037 A 
ATOM     11  C   UNL     1     -12.166  15.762  73.006  0.00  0.00    +0.003 A 
ATOM     12  C   UNL     1     -13.063  14.745  73.200  0.00  0.00    +0.000 A 
ATOM     13  C   UNL     1     -13.251  13.838  72.171  0.00  0.00    +0.003 A 
ATOM     14  C   UNL     1     -12.784  14.136  70.905  0.00  0.00    +0.037 A 
ENDBRANCH   8   9
ENDBRANCH   4   8
ENDBRANCH   1   2
BRANCH   1  15
ATOM     15  O   UNL     1     -11.999  11.571  67.676  0.00  0.00    -0.443 OA
BRANCH  15  16
ATOM     16  C   UNL     1     -11.367  10.501  68.162  0.00  0.00    +0.317 C 
ATOM     17  O   UNL     1     -11.014   9.534  67.440  0.00  0.00    -0.250 OA
BRANCH  16  21
ATOM     18  C   UNL     1     -11.754  10.576  70.750  0.00  0.00    +0.001 C 
ATOM     19  C   UNL     1     -11.681  10.471  70.656  0.00  0.00    +0.015 C 
ATOM     20  C   UNL     1     -10.841   9.083  70.074  0.00  0.00    +0.035 C 
ATOM     21  C   UNL     1     -10.447  10.654  69.486  0.00  0.00    +0.103 C 
ATOM     22  C   UNL     1     -13.061  10.412  70.209  0.00  0.00    +0.001 C 
BRANCH  20  23
ATOM     23  C   UNL     1      -9.748   9.122  71.278  0.00  0.00    -0.003 C 
ATOM     24  C   UNL     1      -9.720   7.933  71.867  0.00  0.00    +0.111 C 
ATOM     25 CL   UNL     1     -10.399   6.466  71.221  0.00  0.00    -0.070 Cl
ATOM     26 CL   UNL     1      -8.966   7.893  73.463  0.00  0.00    -0.070 Cl
ENDBRANCH  20  23
ENDBRANCH  16  21
ENDBRANCH  15  16
ENDBRANCH   1  15
TORSDOF 7
ENDMDL
MODEL 3
REMARK VINA RESULT:      -6.8      3.522      6.686
REMARK  Name = 
REMARK  7 active torsions:
REMARK  status: ('A' for Active; 'I' for Inactive)
REMARK    1  A    between atoms: C_4  and  C_5
REMARK    2  A    between atoms: C_5  and  O_7
REMARK    3  A    between atoms: O_7  and  C_8
REMARK    4  A    between atoms: C_8  and  C_9
REMARK    5  A    between atoms: C_13  and  O_14
REMARK    6  A    between atoms: O_14  and  C_15
REMARK    7  A    between atoms: C_22  and  C_23
REMARK                            x       y       z     vdW  Elec       q    Type
REMARK                         _______ _______ _______ _____ _____    ______ ____
ROOT
ATOM      1  C   UNL     1     -12.179  14.410  64.679  0.00  0.00    +0.235 C 
ENDROOT
BRANCH   1   2
ATOM      2  C   UNL     1     -11.479  14.766  65.914  0.00  0.00    +0.024 A 
ATOM      3  C   UNL     1     -12.045  14.460  67.126  0.00  0.00    +0.037 A 
ATOM      4  C   UNL     1     -11.308  14.300  68.291  0.00  0.00    +0.145 A 
ATOM      5  C   UNL     1      -9.967  14.648  68.192  0.00  0.00    +0.037 A 
ATOM      6  C   UNL     1      -9.428  15.163  67.031  0.00  0.00    +0.003 A 
ATOM      7  C   UNL     1     -10.111  14.960  65.857  0.00  0.00    -0.000 A 
BRANCH   4   8
ATOM      8  O   UNL     1     -11.670  13.349  69.250  0.00  0.00    -0.454 OA
BRANCH   8   9
ATOM      9  C   UNL     1     -12.050  13.803  70.517  0.00  0.00    +0.145 A 
ATOM     10  C   UNL     1     -12.581  15.086  70.559  0.00  0.00    +0.037 A 
ATOM     11  C   UNL     1     -13.463  15.479  71.551  0.00  0.00    +0.003 A 
ATOM     12  C   UNL     1     -14.191  14.517  72.200  0.00  0.00    +0.000 A 
ATOM     13  C   UNL     1     -13.698  13.223  72.206  0.00  0.00    +0.003 A 
ATOM     14  C   UNL     1     -12.684  12.875  71.334  0.00  0.00    +0.037 A 
ENDBRANCH   8   9
ENDBRANCH   4   8
ENDBRANCH   1   2
BRANCH   1  15
ATOM     15  O   UNL     1     -12.618  13.052  64.756  0.00  0.00    -0.443 OA
BRANCH  15  16
ATOM     16  C   UNL     1     -12.033  12.204  63.907  0.00  0.00    +0.317 C 
ATOM     17  O   UNL     1     -12.672  11.583  63.018  0.00  0.00    -0.250 OA
BRANCH  16  21
ATOM     18  C   UNL     1      -9.713  11.497  64.891  0.00  0.00    +0.001 C 
ATOM     19  C   UNL     1      -9.789  11.458  64.756  0.00  0.00    +0.015 C 
ATOM     20  C   UNL     1     -10.202  10.736  63.246  0.00  0.00    +0.035 C 
ATOM     21  C   UNL     1     -10.476  12.415  63.517  0.00  0.00    +0.103 C 
ATOM     22  C   UNL     1     -10.658  10.927  65.790  0.00  0.00    +0.001 C 
BRANCH  20  23
ATOM     23  C   UNL     1      -8.713  10.949  62.627  0.00  0.00    -0.003 C 
ATOM     24  C   UNL     1      -8.465   9.970  61.766  0.00  0.00    +0.111 C 
ATOM     25 CL   UNL     1      -9.652   8.894  61.087  0.00  0.00    -0.070 Cl
ATOM     26 CL   UNL     1      -6.766   9.744  61.342  0.00  0.00    -0.070 Cl
ENDBRANCH  20  23
ENDBRANCH  16  21
ENDBRANCH  15  16
ENDBRANCH   1  15
TORSDOF 7
ENDMDL
MODEL 4
REMARK VINA RESULT:      -6.8      2.986      5.744
REMARK  Name = 
REMARK  7 active torsions:
REMARK  status: ('A' for Active; 'I' for Inactive)
REMARK    1  A    between atoms: C_4  and  C_5
REMARK    2  A    between atoms: C_5  and  O_7
REMARK    3  A    between atoms: O_7  and  C_8
REMARK    4  A    between atoms: C_8  and  C_9
REMARK    5  A    between atoms: C_13  and  O_14
REMARK    6  A    between atoms: O_14  and  C_15
REMARK    7  A    between atoms: C_22  and  C_23
REMARK                            x       y       z     vdW  Elec       q    Type
REMARK                         _______ _______ _______ _____ _____    ______ ____
ROOT
ATOM      1  C   UNL     1      -9.871  18.841  66.698  0.00  0.00    +0.235 C 
ENDROOT
BRANCH   1   2
ATOM      2  C   UNL     1     -10.125  17.446  67.062  0.00  0.00    +0.024 A 
ATOM      3  C   UNL     1     -10.653  17.153  68.295  0.00  0.00    +0.037 A 
ATOM      4  C   UNL     1     -11.364  15.991  68.561  0.00  0.00    +0.145 A 
ATOM      5  C   UNL     1     -11.356  15.048  67.540  0.00  0.00    +0.037 A 
ATOM      6  C   UNL     1     -10.647  15.241  66.372  0.00  0.00    +0.003 A 
ATOM      7  C   UNL     1     -10.278  16.522  66.045  0.00  0.00    -0.000 A 
BRANCH   4   8
ATOM      8  O   UNL     1     -12.449  15.994  69.443  0.00  0.00    -0.454 OA
BRANCH   8   9
ATOM      9  C   UNL     1     -12.295  15.360  70.679  0.00  0.00    +0.145 A 
ATOM     10  C   UNL     1     -11.756  16.144  71.691  0.00  0.00    +0.037 A 
ATOM     11  C   UNL     1     -12.019  15.894  73.028  0.00  0.00    +0.003 A 
ATOM     12  C   UNL     1     -13.160  15.209  73.354  0.00  0.00    +0.000 A 
ATOM     13  C   UNL     1     -13.728  14.396  72.388  0.00  0.00    +0.003 A 
ATOM     14  C   UNL     1     -13.332  14.522  71.070  0.00  0.00    +0.037 A 
ENDBRANCH   8   9
ENDBRANCH   4   8
ENDBRANCH   1   2
BRANCH   1  15
ATOM     15  O   UNL     1      -8.686  18.916  65.902  0.00  0.00    -0.443 OA
BRANCH  15  16
ATOM     16  C   UNL     1      -7.614  19.436  66.504  0.00  0.00    +0.317 C 
ATOM     17  O   UNL     1      -6.772  20.148  65.898  0.00  0.00    -0.250 OA
BRANCH  16  21
ATOM     18  C   UNL     1      -6.898  18.235  68.717  0.00  0.00    +0.001 C 
ATOM     19  C   UNL     1      -6.846  18.367  68.646  0.00  0.00    +0.015 C 
ATOM     20  C   UNL     1      -5.956  19.791  68.256  0.00  0.00    +0.035 C 
ATOM     21  C   UNL     1      -7.670  19.759  68.091  0.00  0.00    +0.103 C 
ATOM     22  C   UNL     1      -6.517  17.325  67.690  0.00  0.00    +0.001 C 
BRANCH  20  23
ATOM     23  C   UNL     1      -5.987  20.344  69.785  0.00  0.00    -0.003 C 
ATOM     24  C   UNL     1      -4.753  20.671  70.147  0.00  0.00    +0.111 C 
ATOM     25 CL   UNL     1      -3.404  20.882  69.067  0.00  0.00    -0.070 Cl
ATOM     26 CL   UNL     1      -4.490  20.843  71.884  0.00  0.00    -0.070 Cl
ENDBRANCH  20  23
ENDBRANCH  16  21
ENDBRANCH  15  16
ENDBRANCH   1  15
TORSDOF 7
ENDMDL
MODEL 5
REMARK VINA RESULT:      -6.8      5.301      9.048
REMARK  Name = 
REMARK  7 active torsions:
REMARK  status: ('A' for Active; 'I' for Inactive)
REMARK    1  A    between atoms: C_4  and  C_5
REMARK    2  A    between atoms: C_5  and  O_7
REMARK    3  A    between atoms: O_7  and  C_8
REMARK    4  A    between atoms: C_8  and  C_9
REMARK    5  A    between atoms: C_13  and  O_14
REMARK    6  A    between atoms: O_14  and  C_15
REMARK    7  A    between atoms: C_22  and  C_23
REMARK                            x       y       z     vdW  Elec       q    Type
REMARK                         _______ _______ _______ _____ _____    ______ ____
ROOT
ATOM      1  C   UNL     1     -10.690  10.437  67.629  0.00  0.00    +0.235 C 
ENDROOT
BRANCH   1   2
ATOM      2  C   UNL     1     -11.438  11.691  67.534  0.00  0.00    +0.024 A 
ATOM      3  C   UNL     1     -11.653  12.438  68.666  0.00  0.00    +0.037 A 
ATOM      4  C   UNL     1     -11.897  13.805  68.640  0.00  0.00    +0.145 A 
ATOM      5  C   UNL     1     -12.088  14.346  67.375  0.00  0.00    +0.037 A 
ATOM      6  C   UNL     1     -12.087  13.565  66.238  0.00  0.00    +0.003 A 
ATOM      7  C   UNL     1     -11.502  12.325  66.307  0.00  0.00    -0.000 A 
BRANCH   4   8
ATOM      8  O   UNL     1     -11.407  14.644  69.646  0.00  0.00    -0.454 OA
BRANCH   8   9
ATOM      9  C   UNL     1     -12.282  15.028  70.667  0.00  0.00    +0.145 A 
ATOM     10  C   UNL     1     -12.926  13.988  71.326  0.00  0.00    +0.037 A 
ATOM     11  C   UNL     1     -13.371  14.114  72.632  0.00  0.00    +0.003 A 
ATOM     12  C   UNL     1     -12.776  15.048  73.439  0.00  0.00    +0.000 A 
ATOM     13  C   UNL     1     -12.136  16.116  72.835  0.00  0.00    +0.003 A 
ATOM     14  C   UNL     1     -11.851  16.066  71.483  0.00  0.00    +0.037 A 
ENDBRANCH   8   9
ENDBRANCH   4   8
ENDBRANCH   1   2
BRANCH   1  15
ATOM     15  O   UNL     1     -10.277  10.230  68.982  0.00  0.00    -0.443 OA
BRANCH  15  16
ATOM     16  C   UNL     1     -10.575   9.039  69.504  0.00  0.00    +0.317 C 
ATOM     17  O   UNL     1     -10.601   7.984  68.820  0.00  0.00    -0.250 OA
BRANCH  16  21
ATOM     18  C   UNL     1     -11.832   9.354  71.779  0.00  0.00    +0.001 C 
ATOM     19  C   UNL     1     -11.786   9.224  71.699  0.00  0.00    +0.015 C 
ATOM     20  C   UNL     1     -11.525   7.589  71.219  0.00  0.00    +0.035 C 
ATOM     21  C   UNL     1     -10.266   8.756  71.069  0.00  0.00    +0.103 C 
ATOM     22  C   UNL     1     -12.753   9.833  70.806  0.00  0.00    +0.001 C 
BRANCH  20  23
ATOM     23  C   UNL     1     -11.084   7.120  72.712  0.00  0.00    -0.003 C 
ATOM     24  C   UNL     1     -10.715   5.846  72.668  0.00  0.00    +0.111 C 
ATOM     25 CL   UNL     1     -10.352   4.947  71.223  0.00  0.00    -0.070 Cl
ATOM     26 CL   UNL     1     -10.651   5.018  74.226  0.00  0.00    -0.070 Cl
ENDBRANCH  20  23
ENDBRANCH  16  21
ENDBRANCH  15  16
ENDBRANCH   1  15
TORSDOF 7
ENDMDL
MODEL 6
REMARK VINA RESULT:      -6.7      3.744      5.782
REMARK  Name = 
REMARK  7 active torsions:
REMARK  status: ('A' for Active; 'I' for Inactive)
REMARK    1  A    between atoms: C_4  and  C_5
REMARK    2  A    between atoms: C_5  and  O_7
REMARK    3  A    between atoms: O_7  and  C_8
REMARK    4  A    between atoms: C_8  and  C_9
REMARK    5  A    between atoms: C_13  and  O_14
REMARK    6  A    between atoms: O_14  and  C_15
REMARK    7  A    between atoms: C_22  and  C_23
REMARK                            x       y       z     vdW  Elec       q    Type
REMARK                         _______ _______ _______ _____ _____    ______ ____
ROOT
ATOM      1  C   UNL     1      -9.001  14.008  66.839  0.00  0.00    +0.235 C 
ENDROOT
BRANCH   1   2
ATOM      2  C   UNL     1      -9.177  12.555  66.835  0.00  0.00    +0.024 A 
ATOM      3  C   UNL     1      -8.954  11.843  67.987  0.00  0.00    +0.037 A 
ATOM      4  C   UNL     1      -9.530  10.605  68.240  0.00  0.00    +0.145 A 
ATOM      5  C   UNL     1     -10.213  10.043  67.168  0.00  0.00    +0.037 A 
ATOM      6  C   UNL     1     -10.264  10.654  65.932  0.00  0.00    +0.003 A 
ATOM      7  C   UNL     1      -9.987  11.996  65.863  0.00  0.00    -0.000 A 
BRANCH   4   8
ATOM      8  O   UNL     1      -9.923  10.242  69.532  0.00  0.00    -0.454 OA
BRANCH   8   9
ATOM      9  C   UNL     1     -11.278  10.349  69.862  0.00  0.00    +0.145 A 
ATOM     10  C   UNL     1     -11.748   9.411  70.773  0.00  0.00    +0.037 A 
ATOM     11  C   UNL     1     -12.835   9.668  71.591  0.00  0.00    +0.003 A 
ATOM     12  C   UNL     1     -13.154  10.972  71.867  0.00  0.00    +0.000 A 
ATOM     13  C   UNL     1     -12.726  11.947  70.981  0.00  0.00    +0.003 A 
ATOM     14  C   UNL     1     -11.764  11.638  70.039  0.00  0.00    +0.037 A 
ENDBRANCH   8   9
ENDBRANCH   4   8
ENDBRANCH   1   2
BRANCH   1  15
ATOM     15  O   UNL     1     -10.242  14.638  66.511  0.00  0.00    -0.443 OA
BRANCH  15  16
ATOM     16  C   UNL     1     -11.108  14.773  67.517  0.00  0.00    +0.317 C 
ATOM     17  O   UNL     1     -12.284  14.330  67.465  0.00  0.00    -0.250 OA
BRANCH  16  21
ATOM     18  C   UNL     1     -10.319  16.687  69.119  0.00  0.00    +0.001 C 
ATOM     19  C   UNL     1     -10.444  16.589  69.124  0.00  0.00    +0.015 C 
ATOM     20  C   UNL     1     -11.908  15.800  69.578  0.00  0.00    +0.035 C 
ATOM     21  C   UNL     1     -10.554  14.884  69.035  0.00  0.00    +0.103 C 
ATOM     22  C   UNL     1     -10.678  17.365  67.920  0.00  0.00    +0.001 C 
BRANCH  20  23
ATOM     23  C   UNL     1     -11.490  15.722  71.149  0.00  0.00    -0.003 C 
ATOM     24  C   UNL     1     -12.594  15.632  71.880  0.00  0.00    +0.111 C 
ATOM     25 CL   UNL     1     -14.178  15.237  71.277  0.00  0.00    -0.070 Cl
ATOM     26 CL   UNL     1     -12.402  16.004  73.595  0.00  0.00    -0.070 Cl
ENDBRANCH  20  23
ENDBRANCH  16  21
ENDBRANCH  15  16
ENDBRANCH   1  15
TORSDOF 7
ENDMDL
MODEL 7
REMARK VINA RESULT:      -6.6      3.237      6.409
REMARK  Name = 
REMARK  7 active torsions:
REMARK  status: ('A' for Active; 'I' for Inactive)
REMARK    1  A    between atoms: C_4  and  C_5
REMARK    2  A    between atoms: C_5  and  O_7
REMARK    3  A    between atoms: O_7  and  C_8
REMARK    4  A    between atoms: C_8  and  C_9
REMARK    5  A    between atoms: C_13  and  O_14
REMARK    6  A    between atoms: O_14  and  C_15
REMARK    7  A    between atoms: C_22  and  C_23
REMARK                            x       y       z     vdW  Elec       q    Type
REMARK                         _______ _______ _______ _____ _____    ______ ____
ROOT
ATOM      1  C   UNL     1     -10.101  15.958  65.358  0.00  0.00    +0.235 C 
ENDROOT
BRANCH   1   2
ATOM      2  C   UNL     1      -9.780  16.239  66.759  0.00  0.00    +0.024 A 
ATOM      3  C   UNL     1     -10.760  16.711  67.596  0.00  0.00    +0.037 A 
ATOM      4  C   UNL     1     -10.722  16.554  68.976  0.00  0.00    +0.145 A 
ATOM      5  C   UNL     1      -9.532  16.042  69.478  0.00  0.00    +0.037 A 
ATOM      6  C   UNL     1      -8.455  15.761  68.663  0.00  0.00    +0.003 A 
ATOM      7  C   UNL     1      -8.685  15.608  67.318  0.00  0.00    -0.000 A 
BRANCH   4   8
ATOM      8  O   UNL     1     -11.892  16.337  69.710  0.00  0.00    -0.454 OA
BRANCH   8   9
ATOM      9  C   UNL     1     -11.824  15.492  70.822  0.00  0.00    +0.145 A 
ATOM     10  C   UNL     1     -12.018  16.107  72.053  0.00  0.00    +0.037 A 
ATOM     11  C   UNL     1     -12.506  15.411  73.147  0.00  0.00    +0.003 A 
ATOM     12  C   UNL     1     -13.245  14.279  72.928  0.00  0.00    +0.000 A 
ATOM     13  C   UNL     1     -13.076  13.616  71.724  0.00  0.00    +0.003 A 
ATOM     14  C   UNL     1     -12.424  14.248  70.682  0.00  0.00    +0.037 A 
ENDBRANCH   8   9
ENDBRANCH   4   8
ENDBRANCH   1   2
BRANCH   1  15
ATOM     15  O   UNL     1     -11.390  15.344  65.280  0.00  0.00    -0.443 OA
BRANCH  15  16
ATOM     16  C   UNL     1     -11.397  14.047  64.965  0.00  0.00    +0.317 C 
ATOM     17  O   UNL     1     -11.985  13.598  63.948  0.00  0.00    -0.250 OA
BRANCH  16  21
ATOM     18  C   UNL     1     -10.782  12.631  67.079  0.00  0.00    +0.001 C 
ATOM     19  C   UNL     1     -10.815  12.590  66.929  0.00  0.00    +0.015 C 
ATOM     20  C   UNL     1     -11.131  11.683  65.498  0.00  0.00    +0.035 C 
ATOM     21  C   UNL     1     -10.164  13.108  65.434  0.00  0.00    +0.103 C 
ATOM     22  C   UNL     1     -12.053  13.189  67.394  0.00  0.00    +0.001 C 
BRANCH  20  23
ATOM     23  C   UNL     1      -9.869  10.685  65.737  0.00  0.00    -0.003 C 
ATOM     24  C   UNL     1      -9.582  10.079  64.591  0.00  0.00    +0.111 C 
ATOM     25 CL   UNL     1     -10.152  10.561  63.020  0.00  0.00    -0.070 Cl
ATOM     26 CL   UNL     1      -8.576   8.635  64.728  0.00  0.00    -0.070 Cl
ENDBRANCH  20  23
ENDBRANCH  16  21
ENDBRANCH  15  16
ENDBRANCH   1  15
TORSDOF 7
ENDMDL
MODEL 8
REMARK VINA RESULT:      -6.6      3.516      5.364
REMARK  Name = 
REMARK  7 active torsions:
REMARK  status: ('A' for Active; 'I' for Inactive)
REMARK    1  A    between atoms: C_4  and  C_5
REMARK    2  A    between atoms: C_5  and  O_7
REMARK    3  A    between atoms: O_7  and  C_8
REMARK    4  A    between atoms: C_8  and  C_9
REMARK    5  A    between atoms: C_13  and  O_14
REMARK    6  A    between atoms: O_14  and  C_15
REMARK    7  A    between atoms: C_22  and  C_23
REMARK                            x       y       z     vdW  Elec       q    Type
REMARK                         _______ _______ _______ _____ _____    ______ ____
ROOT
ATOM      1  C   UNL     1     -10.911  15.950  65.261  0.00  0.00    +0.235 C 
ENDROOT
BRANCH   1   2
ATOM      2  C   UNL     1     -11.001  14.608  64.685  0.00  0.00    +0.024 A 
ATOM      3  C   UNL     1      -9.996  13.702  64.919  0.00  0.00    +0.037 A 
ATOM      4  C   UNL     1     -10.182  12.327  64.854  0.00  0.00    +0.145 A 
ATOM      5  C   UNL     1     -11.414  11.921  64.359  0.00  0.00    +0.037 A 
ATOM      6  C   UNL     1     -12.359  12.825  63.918  0.00  0.00    +0.003 A 
ATOM      7  C   UNL     1     -12.249  14.129  64.334  0.00  0.00    -0.000 A 
BRANCH   4   8
ATOM      8  O   UNL     1      -9.509  11.467  65.728  0.00  0.00    -0.454 OA
BRANCH   8   9
ATOM      9  C   UNL     1     -10.170  10.309  66.150  0.00  0.00    +0.145 A 
ATOM     10  C   UNL     1      -9.576   9.110  65.774  0.00  0.00    +0.037 A 
ATOM     11  C   UNL     1      -9.752   7.947  66.506  0.00  0.00    +0.003 A 
ATOM     12  C   UNL     1     -10.090   8.051  67.830  0.00  0.00    +0.000 A 
ATOM     13  C   UNL     1     -10.703   9.218  68.254  0.00  0.00    +0.003 A 
ATOM     14  C   UNL     1     -10.684  10.334  67.440  0.00  0.00    +0.037 A 
ENDBRANCH   8   9
ENDBRANCH   4   8
ENDBRANCH   1   2
BRANCH   1  15
ATOM     15  O   UNL     1      -9.987  15.939  66.351  0.00  0.00    -0.443 OA
BRANCH  15  16
ATOM     16  C   UNL     1     -10.520  16.091  67.565  0.00  0.00    +0.317 C 
ATOM     17  O   UNL     1     -10.606  17.209  68.135  0.00  0.00    -0.250 OA
BRANCH  16  21
ATOM     18  C   UNL     1     -10.561  13.684  68.595  0.00  0.00    +0.001 C 
ATOM     19  C   UNL     1     -10.601  13.826  68.654  0.00  0.00    +0.015 C 
ATOM     20  C   UNL     1     -11.108  15.091  69.710  0.00  0.00    +0.035 C 
ATOM     21  C   UNL     1     -11.650  15.048  68.075  0.00  0.00    +0.103 C 
ATOM     22  C   UNL     1      -9.177  13.957  68.407  0.00  0.00    +0.001 C 
BRANCH  20  23
ATOM     23  C   UNL     1     -12.369  14.238  70.283  0.00  0.00    -0.003 C 
ATOM     24  C   UNL     1     -12.638  14.650  71.515  0.00  0.00    +0.111 C 
ATOM     25 CL   UNL     1     -12.049  16.116  72.244  0.00  0.00    -0.070 Cl
ATOM     26 CL   UNL     1     -13.640  13.561  72.479  0.00  0.00    -0.070 Cl
ENDBRANCH  20  23
ENDBRANCH  16  21
ENDBRANCH  15  16
ENDBRANCH   1  15
TORSDOF 7
ENDMDL
MODEL 9
REMARK VINA RESULT:      -6.5      3.307      6.724
REMARK  Name = 
REMARK  7 active torsions:
REMARK  status: ('A' for Active; 'I' for Inactive)
REMARK    1  A    between atoms: C_4  and  C_5
REMARK    2  A    between atoms: C_5  and  O_7
REMARK    3  A    between atoms: O_7  and  C_8
REMARK    4  A    between atoms: C_8  and  C_9
REMARK    5  A    between atoms: C_13  and  O_14
REMARK    6  A    between atoms: O_14  and  C_15
REMARK    7  A    between atoms: C_22  and  C_23
REMARK                            x       y       z     vdW  Elec       q    Type
REMARK                         _______ _______ _______ _____ _____    ______ ____
ROOT
ATOM      1  C   UNL     1     -12.281  13.917  65.459  0.00  0.00    +0.235 C 
ENDROOT
BRANCH   1   2
ATOM      2  C   UNL     1     -11.584  14.051  66.739  0.00  0.00    +0.024 A 
ATOM      3  C   UNL     1     -10.895  15.205  67.018  0.00  0.00    +0.037 A 
ATOM      4  C   UNL     1     -10.626  15.637  68.310  0.00  0.00    +0.145 A 
ATOM      5  C   UNL     1     -10.944  14.729  69.313  0.00  0.00    +0.037 A 
ATOM      6  C   UNL     1     -11.441  13.473  69.032  0.00  0.00    +0.003 A 
ATOM      7  C   UNL     1     -11.999  13.261  67.796  0.00  0.00    -0.000 A 
BRANCH   4   8
ATOM      8  O   UNL     1     -10.629  16.998  68.631  0.00  0.00    -0.454 OA
BRANCH   8   9
ATOM      9  C   UNL     1      -9.921  17.872  67.800  0.00  0.00    +0.145 A 
ATOM     10  C   UNL     1     -10.669  18.899  67.238  0.00  0.00    +0.037 A 
ATOM     11  C   UNL     1     -10.092  20.101  66.862  0.00  0.00    +0.003 A 
ATOM     12  C   UNL     1      -8.920  20.481  67.462  0.00  0.00    +0.000 A 
ATOM     13  C   UNL     1      -8.127  19.495  68.022  0.00  0.00    +0.003 A 
ATOM     14  C   UNL     1      -8.652  18.234  68.232  0.00  0.00    +0.037 A 
ENDBRANCH   8   9
ENDBRANCH   4   8
ENDBRANCH   1   2
BRANCH   1  15
ATOM     15  O   UNL     1     -12.610  12.543  65.239  0.00  0.00    -0.443 OA
BRANCH  15  16
ATOM     16  C   UNL     1     -12.068  11.983  64.155  0.00  0.00    +0.317 C 
ATOM     17  O   UNL     1     -12.754  11.596  63.174  0.00  0.00    -0.250 OA
BRANCH  16  21
ATOM     18  C   UNL     1      -9.659  11.270  64.891  0.00  0.00    +0.001 C 
ATOM     19  C   UNL     1      -9.740  11.250  64.755  0.00  0.00    +0.015 C 
ATOM     20  C   UNL     1     -10.196  10.778  63.162  0.00  0.00    +0.035 C 
ATOM     21  C   UNL     1     -10.550  12.362  63.738  0.00  0.00    +0.103 C 
ATOM     22  C   UNL     1     -10.518  10.491  65.716  0.00  0.00    +0.001 C 
BRANCH  20  23
ATOM     23  C   UNL     1      -8.759  11.194  62.523  0.00  0.00    -0.003 C 
ATOM     24  C   UNL     1      -8.416  10.287  61.616  0.00  0.00    +0.111 C 
ATOM     25 CL   UNL     1      -9.482   9.102  60.916  0.00  0.00    -0.070 Cl
ATOM     26 CL   UNL     1      -6.714  10.285  61.150  0.00  0.00    -0.070 Cl
ENDBRANCH  20  23
ENDBRANCH  16  21
ENDBRANCH  15  16
ENDBRANCH   1  15
TORSDOF 7
ENDMDL
