MODEL 1
REMARK VINA RESULT:      -6.1      0.000      0.000
REMARK  Name = 
REMARK  3 active torsions:
REMARK  status: ('A' for Active; 'I' for Inactive)
REMARK    1  A    between atoms: C_4  and  C_5
REMARK    2  A    between atoms: C_12  and  C_13
REMARK    3  A    between atoms: C_13  and  C_14
REMARK                            x       y       z     vdW  Elec       q    Type
REMARK                         _______ _______ _______ _____ _____    ______ ____
ROOT
ATOM      1  C   UNL     1     -11.274  12.404  68.073  0.00  0.00    +0.031 C 
ATOM      2  C   UNL     1     -11.691  13.596  68.856  0.00  0.00    -0.026 A 
ATOM      3  C   UNL     1     -11.448  14.870  68.371  0.00  0.00    -0.018 A 
ATOM      4  C   UNL     1     -11.281  15.920  69.264  0.00  0.00    -0.026 A 
ATOM      5  C   UNL     1     -10.544  17.149  68.863  0.00  0.00    +0.031 C 
ATOM      6  C   UNL     1     -11.854  15.800  70.521  0.00  0.00    -0.009 A 
ATOM      7  C   UNL     1     -12.463  14.612  70.898  0.00  0.00    -0.023 A 
ATOM      8  C   UNL     1     -12.113  13.481  70.175  0.00  0.00    -0.009 A 
ENDROOT
BRANCH   7   9
ATOM      9  C   UNL     1     -13.444  14.564  72.000  0.00  0.00    +0.019 C 
ATOM     10  C   UNL     1     -12.887  15.308  73.198  0.00  0.00    +0.004 C 
ATOM     11  C   UNL     1     -14.747  15.237  71.619  0.00  0.00    +0.004 C 
ATOM     12  C   UNL     1     -13.673  13.119  72.375  0.00  0.00    +0.004 C 
ENDBRANCH   7   9
BRANCH   3  13
ATOM     13  C   UNL     1     -11.309  15.093  66.922  0.00  0.00    +0.146 C 
BRANCH  13  14
ATOM     14  C   UNL     1      -9.867  15.230  66.547  0.00  0.00    +0.336 C 
ATOM     15  N   UNL     1      -8.758  14.481  67.055  0.00  0.00    -0.030 NA
ATOM     16  C   UNL     1      -7.635  15.398  67.243  0.00  0.00    +0.308 C 
ATOM     17  C   UNL     1      -8.050  16.506  66.279  0.00  0.00    +0.318 C 
ATOM     18  N   UNL     1      -9.329  16.090  65.738  0.00  0.00    -0.061 NA
ENDBRANCH  13  14
ENDBRANCH   3  13
TORSDOF 3
ENDMDL
MODEL 2
REMARK VINA RESULT:      -5.9      2.303      5.200
REMARK  Name = 
REMARK  3 active torsions:
REMARK  status: ('A' for Active; 'I' for Inactive)
REMARK    1  A    between atoms: C_4  and  C_5
REMARK    2  A    between atoms: C_12  and  C_13
REMARK    3  A    between atoms: C_13  and  C_14
REMARK                            x       y       z     vdW  Elec       q    Type
REMARK                         _______ _______ _______ _____ _____    ______ ____
ROOT
ATOM      1  C   UNL     1     -12.136  15.578  70.070  0.00  0.00    +0.031 C 
ATOM      2  C   UNL     1     -11.212  15.836  68.935  0.00  0.00    -0.026 A 
ATOM      3  C   UNL     1     -10.767  14.790  68.145  0.00  0.00    -0.018 A 
ATOM      4  C   UNL     1      -9.534  14.888  67.513  0.00  0.00    -0.026 A 
ATOM      5  C   UNL     1      -8.796  13.667  67.092  0.00  0.00    +0.031 C 
ATOM      6  C   UNL     1      -9.037  16.157  67.255  0.00  0.00    -0.009 A 
ATOM      7  C   UNL     1      -9.703  17.276  67.731  0.00  0.00    -0.023 A 
ATOM      8  C   UNL     1     -10.590  17.070  68.777  0.00  0.00    -0.009 A 
ENDROOT
BRANCH   7   9
ATOM      9  C   UNL     1      -9.489  18.611  67.139  0.00  0.00    +0.019 C 
ATOM     10  C   UNL     1     -10.490  18.829  66.021  0.00  0.00    +0.004 C 
ATOM     11  C   UNL     1      -9.702  19.715  68.154  0.00  0.00    +0.004 C 
ATOM     12  C   UNL     1      -8.091  18.664  66.570  0.00  0.00    +0.004 C 
ENDBRANCH   7   9
BRANCH   3  13
ATOM     13  C   UNL     1     -11.570  13.561  68.028  0.00  0.00    +0.146 C 
BRANCH  13  14
ATOM     14  C   UNL     1     -12.088  13.401  66.634  0.00  0.00    +0.336 C 
ATOM     15  N   UNL     1     -12.056  12.223  65.820  0.00  0.00    -0.030 NA
ATOM     16  C   UNL     1     -11.729  12.622  64.452  0.00  0.00    +0.308 C 
ATOM     17  C   UNL     1     -12.160  14.085  64.505  0.00  0.00    +0.318 C 
ATOM     18  N   UNL     1     -12.611  14.307  65.866  0.00  0.00    -0.061 NA
ENDBRANCH  13  14
ENDBRANCH   3  13
TORSDOF 3
ENDMDL
MODEL 3
REMARK VINA RESULT:      -5.7      2.471      5.064
REMARK  Name = 
REMARK  3 active torsions:
REMARK  status: ('A' for Active; 'I' for Inactive)
REMARK    1  A    between atoms: C_4  and  C_5
REMARK    2  A    between atoms: C_12  and  C_13
REMARK    3  A    between atoms: C_13  and  C_14
REMARK                            x       y       z     vdW  Elec       q    Type
REMARK                         _______ _______ _______ _____ _____    ______ ____
ROOT
ATOM      1  C   UNL     1      -7.587  15.733  67.579  0.00  0.00    +0.031 C 
ATOM      2  C   UNL     1      -9.040  15.488  67.386  0.00  0.00    -0.026 A 
ATOM      3  C   UNL     1      -9.965  16.057  68.245  0.00  0.00    -0.018 A 
ATOM      4  C   UNL     1     -11.181  15.420  68.459  0.00  0.00    -0.026 A 
ATOM      5  C   UNL     1     -11.970  15.682  69.692  0.00  0.00    +0.031 C 
ATOM      6  C   UNL     1     -11.648  14.567  67.470  0.00  0.00    -0.009 A 
ATOM      7  C   UNL     1     -10.856  14.276  66.370  0.00  0.00    -0.023 A 
ATOM      8  C   UNL     1      -9.496  14.512  66.506  0.00  0.00    -0.009 A 
ENDROOT
BRANCH   7   9
ATOM      9  C   UNL     1     -11.438  13.758  65.115  0.00  0.00    +0.019 C 
ATOM     10  C   UNL     1     -12.017  14.912  64.320  0.00  0.00    +0.004 C 
ATOM     11  C   UNL     1     -10.391  13.093  64.245  0.00  0.00    +0.004 C 
ATOM     12  C   UNL     1     -12.544  12.791  65.465  0.00  0.00    +0.004 C 
ENDBRANCH   7   9
BRANCH   3  13
ATOM     13  C   UNL     1      -9.633  17.294  68.971  0.00  0.00    +0.146 C 
BRANCH  13  14
ATOM     14  C   UNL     1      -9.750  18.481  68.069  0.00  0.00    +0.336 C 
ATOM     15  N   UNL     1     -10.925  18.958  67.402  0.00  0.00    -0.030 NA
ATOM     16  C   UNL     1     -10.544  19.382  66.055  0.00  0.00    +0.308 C 
ATOM     17  C   UNL     1      -9.055  19.628  66.279  0.00  0.00    +0.318 C 
ATOM     18  N   UNL     1      -8.807  19.275  67.663  0.00  0.00    -0.061 NA
ENDBRANCH  13  14
ENDBRANCH   3  13
TORSDOF 3
ENDMDL
MODEL 4
REMARK VINA RESULT:      -5.7      2.494      5.814
REMARK  Name = 
REMARK  3 active torsions:
REMARK  status: ('A' for Active; 'I' for Inactive)
REMARK    1  A    between atoms: C_4  and  C_5
REMARK    2  A    between atoms: C_12  and  C_13
REMARK    3  A    between atoms: C_13  and  C_14
REMARK                            x       y       z     vdW  Elec       q    Type
REMARK                         _______ _______ _______ _____ _____    ______ ____
ROOT
ATOM      1  C   UNL     1      -8.027  15.114  69.215  0.00  0.00    +0.031 C 
ATOM      2  C   UNL     1      -8.922  15.882  68.311  0.00  0.00    -0.026 A 
ATOM      3  C   UNL     1     -10.003  15.262  67.707  0.00  0.00    -0.018 A 
ATOM      4  C   UNL     1     -10.467  15.734  66.486  0.00  0.00    -0.026 A 
ATOM      5  C   UNL     1     -11.246  14.853  65.577  0.00  0.00    +0.031 C 
ATOM      6  C   UNL     1     -10.211  17.059  66.164  0.00  0.00    -0.009 A 
ATOM      7  C   UNL     1      -9.411  17.834  66.990  0.00  0.00    -0.023 A 
ATOM      8  C   UNL     1      -8.577  17.152  67.863  0.00  0.00    -0.009 A 
ENDROOT
BRANCH   7   9
ATOM      9  C   UNL     1      -9.463  19.310  66.950  0.00  0.00    +0.019 C 
ATOM     10  C   UNL     1      -9.906  19.831  68.303  0.00  0.00    +0.004 C 
ATOM     11  C   UNL     1      -8.102  19.910  66.661  0.00  0.00    +0.004 C 
ATOM     12  C   UNL     1     -10.469  19.725  65.903  0.00  0.00    +0.004 C 
ENDBRANCH   7   9
BRANCH   3  13
ATOM     13  C   UNL     1     -10.614  14.075  68.329  0.00  0.00    +0.146 C 
BRANCH  13  14
ATOM     14  C   UNL     1     -11.653  14.479  69.326  0.00  0.00    +0.336 C 
ATOM     15  N   UNL     1     -12.092  15.806  69.641  0.00  0.00    -0.030 NA
ATOM     16  C   UNL     1     -12.280  15.894  71.088  0.00  0.00    +0.308 C 
ATOM     17  C   UNL     1     -12.466  14.414  71.409  0.00  0.00    +0.318 C 
ATOM     18  N   UNL     1     -12.316  13.720  70.144  0.00  0.00    -0.061 NA
ENDBRANCH  13  14
ENDBRANCH   3  13
TORSDOF 3
ENDMDL
MODEL 5
REMARK VINA RESULT:      -5.6      2.576      5.583
REMARK  Name = 
REMARK  3 active torsions:
REMARK  status: ('A' for Active; 'I' for Inactive)
REMARK    1  A    between atoms: C_4  and  C_5
REMARK    2  A    between atoms: C_12  and  C_13
REMARK    3  A    between atoms: C_13  and  C_14
REMARK                            x       y       z     vdW  Elec       q    Type
REMARK                         _______ _______ _______ _____ _____    ______ ____
ROOT
ATOM      1  C   UNL     1      -8.231  12.880  67.000  0.00  0.00    +0.031 C 
ATOM      2  C   UNL     1      -9.160  13.983  66.643  0.00  0.00    -0.026 A 
ATOM      3  C   UNL     1     -10.399  13.702  66.091  0.00  0.00    -0.018 A 
ATOM      4  C   UNL     1     -10.998  14.630  65.250  0.00  0.00    -0.026 A 
ATOM      5  C   UNL     1     -12.028  14.207  64.263  0.00  0.00    +0.031 C 
ATOM      6  C   UNL     1     -10.633  15.961  65.388  0.00  0.00    -0.009 A 
ATOM      7  C   UNL     1      -9.612  16.316  66.255  0.00  0.00    -0.023 A 
ATOM      8  C   UNL     1      -8.736  15.307  66.628  0.00  0.00    -0.009 A 
ENDROOT
BRANCH   7   9
ATOM      9  C   UNL     1      -9.480  17.695  66.767  0.00  0.00    +0.019 C 
ATOM     10  C   UNL     1      -8.080  18.203  66.481  0.00  0.00    +0.004 C 
ATOM     11  C   UNL     1     -10.448  18.641  66.086  0.00  0.00    +0.004 C 
ATOM     12  C   UNL     1      -9.705  17.675  68.261  0.00  0.00    +0.004 C 
ENDBRANCH   7   9
BRANCH   3  13
ATOM     13  C   UNL     1     -11.043  12.403  66.349  0.00  0.00    +0.146 C 
BRANCH  13  14
ATOM     14  C   UNL     1     -11.732  12.412  67.676  0.00  0.00    +0.336 C 
ATOM     15  N   UNL     1     -12.085  13.551  68.469  0.00  0.00    -0.030 NA
ATOM     16  C   UNL     1     -11.819  13.231  69.871  0.00  0.00    +0.308 C 
ATOM     17  C   UNL     1     -11.861  11.708  69.796  0.00  0.00    +0.318 C 
ATOM     18  N   UNL     1     -12.091  11.395  68.398  0.00  0.00    -0.061 NA
ENDBRANCH  13  14
ENDBRANCH   3  13
TORSDOF 3
ENDMDL
MODEL 6
REMARK VINA RESULT:      -5.6      1.852      2.534
REMARK  Name = 
REMARK  3 active torsions:
REMARK  status: ('A' for Active; 'I' for Inactive)
REMARK    1  A    between atoms: C_4  and  C_5
REMARK    2  A    between atoms: C_12  and  C_13
REMARK    3  A    between atoms: C_13  and  C_14
REMARK                            x       y       z     vdW  Elec       q    Type
REMARK                         _______ _______ _______ _____ _____    ______ ____
ROOT
ATOM      1  C   UNL     1     -11.499  10.885  68.565  0.00  0.00    +0.031 C 
ATOM      2  C   UNL     1     -11.862  12.281  68.924  0.00  0.00    -0.026 A 
ATOM      3  C   UNL     1     -11.783  13.289  67.978  0.00  0.00    -0.018 A 
ATOM      4  C   UNL     1     -11.544  14.594  68.389  0.00  0.00    -0.026 A 
ATOM      5  C   UNL     1     -10.962  15.591  67.452  0.00  0.00    +0.031 C 
ATOM      6  C   UNL     1     -11.899  14.941  69.684  0.00  0.00    -0.009 A 
ATOM      7  C   UNL     1     -12.360  13.973  70.563  0.00  0.00    -0.023 A 
ATOM      8  C   UNL     1     -12.058  12.656  70.248  0.00  0.00    -0.009 A 
ENDROOT
BRANCH   7   9
ATOM      9  C   UNL     1     -13.148  14.330  71.760  0.00  0.00    +0.019 C 
ATOM     10  C   UNL     1     -12.263  15.084  72.734  0.00  0.00    +0.004 C 
ATOM     11  C   UNL     1     -14.311  15.238  71.415  0.00  0.00    +0.004 C 
ATOM     12  C   UNL     1     -13.632  13.057  72.413  0.00  0.00    +0.004 C 
ENDBRANCH   7   9
BRANCH   3  13
ATOM     13  C   UNL     1     -11.893  12.966  66.546  0.00  0.00    +0.146 C 
BRANCH  13  14
ATOM     14  C   UNL     1     -10.609  12.392  66.036  0.00  0.00    +0.336 C 
ATOM     15  N   UNL     1     -10.441  11.319  65.103  0.00  0.00    -0.030 NA
ATOM     16  C   UNL     1      -9.328  10.488  65.558  0.00  0.00    +0.308 C 
ATOM     17  C   UNL     1      -8.595  11.502  66.429  0.00  0.00    +0.318 C 
ATOM     18  N   UNL     1      -9.398  12.709  66.380  0.00  0.00    -0.061 NA
ENDBRANCH  13  14
ENDBRANCH   3  13
TORSDOF 3
ENDMDL
MODEL 7
REMARK VINA RESULT:      -5.6      2.606      5.632
REMARK  Name = 
REMARK  3 active torsions:
REMARK  status: ('A' for Active; 'I' for Inactive)
REMARK    1  A    between atoms: C_4  and  C_5
REMARK    2  A    between atoms: C_12  and  C_13
REMARK    3  A    between atoms: C_13  and  C_14
REMARK                            x       y       z     vdW  Elec       q    Type
REMARK                         _______ _______ _______ _____ _____    ______ ____
ROOT
ATOM      1  C   UNL     1     -12.173  12.539  70.311  0.00  0.00    +0.031 C 
ATOM      2  C   UNL     1     -11.692  13.202  69.071  0.00  0.00    -0.026 A 
ATOM      3  C   UNL     1     -11.192  14.493  69.118  0.00  0.00    -0.018 A 
ATOM      4  C   UNL     1     -11.292  15.305  67.996  0.00  0.00    -0.026 A 
ATOM      5  C   UNL     1     -11.251  16.786  68.124  0.00  0.00    +0.031 C 
ATOM      6  C   UNL     1     -11.394  14.690  66.757  0.00  0.00    -0.009 A 
ATOM      7  C   UNL     1     -11.515  13.311  66.672  0.00  0.00    -0.023 A 
ATOM      8  C   UNL     1     -11.942  12.656  67.817  0.00  0.00    -0.009 A 
ENDROOT
BRANCH   7   9
ATOM      9  C   UNL     1     -11.188  12.583  65.430  0.00  0.00    +0.019 C 
ATOM     10  C   UNL     1     -10.206  13.402  64.615  0.00  0.00    +0.004 C 
ATOM     11  C   UNL     1     -10.531  11.249  65.718  0.00  0.00    +0.004 C 
ATOM     12  C   UNL     1     -12.459  12.398  64.635  0.00  0.00    +0.004 C 
ENDBRANCH   7   9
BRANCH   3  13
ATOM     13  C   UNL     1     -10.615  15.014  70.368  0.00  0.00    +0.146 C 
BRANCH  13  14
ATOM     14  C   UNL     1     -11.696  15.441  71.310  0.00  0.00    +0.336 C 
ATOM     15  N   UNL     1     -11.713  15.312  72.736  0.00  0.00    -0.030 NA
ATOM     16  C   UNL     1     -13.061  14.920  73.143  0.00  0.00    +0.308 C 
ATOM     17  C   UNL     1     -13.844  15.412  71.930  0.00  0.00    +0.318 C 
ATOM     18  N   UNL     1     -12.853  15.953  71.021  0.00  0.00    -0.061 NA
ENDBRANCH  13  14
ENDBRANCH   3  13
TORSDOF 3
ENDMDL
MODEL 8
REMARK VINA RESULT:      -5.5      2.249      5.116
REMARK  Name = 
REMARK  3 active torsions:
REMARK  status: ('A' for Active; 'I' for Inactive)
REMARK    1  A    between atoms: C_4  and  C_5
REMARK    2  A    between atoms: C_12  and  C_13
REMARK    3  A    between atoms: C_13  and  C_14
REMARK                            x       y       z     vdW  Elec       q    Type
REMARK                         _______ _______ _______ _____ _____    ______ ____
ROOT
ATOM      1  C   UNL     1     -12.059  12.501  70.133  0.00  0.00    +0.031 C 
ATOM      2  C   UNL     1     -11.604  12.266  68.738  0.00  0.00    -0.026 A 
ATOM      3  C   UNL     1     -11.729  13.263  67.785  0.00  0.00    -0.018 A 
ATOM      4  C   UNL     1     -11.872  12.915  66.448  0.00  0.00    -0.026 A 
ATOM      5  C   UNL     1     -12.497  13.857  65.481  0.00  0.00    +0.031 C 
ATOM      6  C   UNL     1     -11.382  11.683  66.042  0.00  0.00    -0.009 A 
ATOM      7  C   UNL     1     -10.881  10.790  66.978  0.00  0.00    -0.023 A 
ATOM      8  C   UNL     1     -11.268  10.992  68.294  0.00  0.00    -0.009 A 
ENDROOT
BRANCH   7   9
ATOM      9  C   UNL     1      -9.970   9.696  66.589  0.00  0.00    +0.019 C 
ATOM     10  C   UNL     1      -8.625   9.903  67.258  0.00  0.00    +0.004 C 
ATOM     11  C   UNL     1     -10.492   8.346  67.037  0.00  0.00    +0.004 C 
ATOM     12  C   UNL     1      -9.789   9.733  65.089  0.00  0.00    +0.004 C 
ENDBRANCH   7   9
BRANCH   3  13
ATOM     13  C   UNL     1     -11.769  14.676  68.198  0.00  0.00    +0.146 C 
BRANCH  13  14
ATOM     14  C   UNL     1     -10.496  15.368  67.829  0.00  0.00    +0.336 C 
ATOM     15  N   UNL     1     -10.331  16.476  66.937  0.00  0.00    -0.030 NA
ATOM     16  C   UNL     1      -9.123  16.250  66.146  0.00  0.00    +0.308 C 
ATOM     17  C   UNL     1      -8.393  15.279  67.070  0.00  0.00    +0.318 C 
ATOM     18  N   UNL     1      -9.287  15.067  68.193  0.00  0.00    -0.061 NA
ENDBRANCH  13  14
ENDBRANCH   3  13
TORSDOF 3
ENDMDL
MODEL 9
REMARK VINA RESULT:      -5.5      2.542      5.371
REMARK  Name = 
REMARK  3 active torsions:
REMARK  status: ('A' for Active; 'I' for Inactive)
REMARK    1  A    between atoms: C_4  and  C_5
REMARK    2  A    between atoms: C_12  and  C_13
REMARK    3  A    between atoms: C_13  and  C_14
REMARK                            x       y       z     vdW  Elec       q    Type
REMARK                         _______ _______ _______ _____ _____    ______ ____
ROOT
ATOM      1  C   UNL     1     -10.905  15.348  69.933  0.00  0.00    +0.031 C 
ATOM      2  C   UNL     1     -10.729  15.970  68.594  0.00  0.00    -0.026 A 
ATOM      3  C   UNL     1     -11.066  15.269  67.449  0.00  0.00    -0.018 A 
ATOM      4  C   UNL     1     -10.406  15.547  66.259  0.00  0.00    -0.026 A 
ATOM      5  C   UNL     1     -10.348  14.539  65.167  0.00  0.00    +0.031 C 
ATOM      6  C   UNL     1      -9.839  16.805  66.111  0.00  0.00    -0.009 A 
ATOM      7  C   UNL     1      -9.833  17.695  67.174  0.00  0.00    -0.023 A 
ATOM      8  C   UNL     1     -10.016  17.153  68.437  0.00  0.00    -0.009 A 
ENDROOT
BRANCH   7   9
ATOM      9  C   UNL     1      -9.660  19.147  66.963  0.00  0.00    +0.019 C 
ATOM     10  C   UNL     1      -9.998  19.882  68.245  0.00  0.00    +0.004 C 
ATOM     11  C   UNL     1      -8.228  19.494  66.611  0.00  0.00    +0.004 C 
ATOM     12  C   UNL     1     -10.607  19.588  65.872  0.00  0.00    +0.004 C 
ENDBRANCH   7   9
BRANCH   3  13
ATOM     13  C   UNL     1     -12.073  14.196  67.510  0.00  0.00    +0.146 C 
BRANCH  13  14
ATOM     14  C   UNL     1     -11.411  12.856  67.568  0.00  0.00    +0.336 C 
ATOM     15  N   UNL     1     -10.157  12.527  68.177  0.00  0.00    -0.030 NA
ATOM     16  C   UNL     1      -9.460  11.584  67.304  0.00  0.00    +0.308 C 
ATOM     17  C   UNL     1     -10.651  11.026  66.531  0.00  0.00    +0.318 C 
ATOM     18  N   UNL     1     -11.808  11.743  67.030  0.00  0.00    -0.061 NA
ENDBRANCH  13  14
ENDBRANCH   3  13
TORSDOF 3
ENDMDL
