MODEL 1
REMARK VINA RESULT:      -8.0      0.000      0.000
REMARK  Name = 
REMARK  7 active torsions:
REMARK  status: ('A' for Active; 'I' for Inactive)
REMARK    1  A    between atoms: C_2  and  C_3
REMARK    2  A    between atoms: C_2  and  C_20
REMARK    3  A    between atoms: C_12  and  C_13
REMARK    4  A    between atoms: C_23  and  O_24
REMARK    5  A    between atoms: O_24  and  C_25
REMARK    6  A    between atoms: C_25  and  C_26
REMARK    7  A    between atoms: C_26  and  N_27
REMARK                            x       y       z     vdW  Elec       q    Type
REMARK                         _______ _______ _______ _____ _____    ______ ____
ROOT
ATOM      1  O   UNL     1     -12.438  13.984  67.047  0.00  0.00    -0.287 OA
ATOM      2  C   UNL     1     -11.521  13.761  67.893  0.00  0.00    +0.196 C 
ENDROOT
BRANCH   2   3
ATOM      3  C   UNL     1     -11.829  13.245  69.235  0.00  0.00    +0.045 A 
ATOM      4  C   UNL     1     -11.627  11.913  69.583  0.00  0.00    +0.033 A 
ATOM      5  S   UNL     1     -12.567  11.816  71.019  0.00  0.00    -0.087 S 
ATOM      6  C   UNL     1     -12.821  13.496  71.275  0.00  0.00    +0.033 A 
ATOM      7  C   UNL     1     -13.477  14.310  72.192  0.00  0.00    +0.048 A 
ATOM      8  C   UNL     1     -13.109  15.640  72.364  0.00  0.00    +0.196 A 
ATOM      9  O   UNL     1     -13.472  16.262  73.538  0.00  0.00    -0.287 OA
ATOM     10  C   UNL     1     -11.946  16.036  71.715  0.00  0.00    +0.042 A 
ATOM     11  C   UNL     1     -11.629  15.389  70.529  0.00  0.00    +0.004 A 
ATOM     12  C   UNL     1     -11.907  14.035  70.377  0.00  0.00    +0.010 A 
BRANCH   4  13
ATOM     13  C   UNL     1     -10.860  10.892  68.861  0.00  0.00    +0.006 A 
ATOM     14  C   UNL     1     -11.190  10.543  67.559  0.00  0.00    +0.004 A 
ATOM     15  C   UNL     1     -10.500   9.487  66.979  0.00  0.00    +0.042 A 
ATOM     16  C   UNL     1     -10.258   8.385  67.786  0.00  0.00    +0.196 A 
ATOM     17  O   UNL     1     -10.219   7.085  67.277  0.00  0.00    -0.287 OA
ATOM     18  C   UNL     1     -10.228   8.566  69.159  0.00  0.00    +0.042 A 
ATOM     19  C   UNL     1     -10.351   9.862  69.645  0.00  0.00    +0.004 A 
ENDBRANCH   4  13
ENDBRANCH   2   3
BRANCH   2  20
ATOM     20  C   UNL     1     -10.234  14.397  67.584  0.00  0.00    +0.039 A 
ATOM     21  C   UNL     1     -10.085  15.259  66.505  0.00  0.00    +0.006 A 
ATOM     22  C   UNL     1      -8.843  15.795  66.239  0.00  0.00    +0.037 A 
ATOM     23  C   UNL     1      -7.738  15.403  66.953  0.00  0.00    +0.139 A 
ATOM     24  C   UNL     1      -7.860  14.267  67.728  0.00  0.00    +0.037 A 
ATOM     25  C   UNL     1      -9.103  13.968  68.240  0.00  0.00    +0.006 A 
BRANCH  23  26
ATOM     26  O   UNL     1      -6.517  16.066  66.852  0.00  0.00    -0.474 OA
BRANCH  26  27
ATOM     27  C   UNL     1      -6.559  17.383  66.335  0.00  0.00    +0.223 C 
BRANCH  27  28
ATOM     28  C   UNL     1      -6.362  18.393  67.428  0.00  0.00    +0.120 C 
BRANCH  28  29
ATOM     29  N   UNL     1      -7.517  19.218  67.670  0.00  0.00    -0.270 NA
ATOM     30  C   UNL     1      -8.502  18.535  68.506  0.00  0.00    +0.072 C 
ATOM     31  C   UNL     1      -9.661  19.504  68.697  0.00  0.00    +0.017 C 
ATOM     32  C   UNL     1     -10.431  19.668  67.392  0.00  0.00    +0.003 C 
ATOM     33  C   UNL     1      -9.527  19.280  66.254  0.00  0.00    +0.017 C 
ATOM     34  C   UNL     1      -8.101  19.727  66.455  0.00  0.00    +0.072 C 
ENDBRANCH  28  29
ENDBRANCH  27  28
ENDBRANCH  26  27
ENDBRANCH  23  26
ENDBRANCH   2  20
TORSDOF 7
ENDMDL
MODEL 2
REMARK VINA RESULT:      -7.9      4.285      7.752
REMARK  Name = 
REMARK  7 active torsions:
REMARK  status: ('A' for Active; 'I' for Inactive)
REMARK    1  A    between atoms: C_2  and  C_3
REMARK    2  A    between atoms: C_2  and  C_20
REMARK    3  A    between atoms: C_12  and  C_13
REMARK    4  A    between atoms: C_23  and  O_24
REMARK    5  A    between atoms: O_24  and  C_25
REMARK    6  A    between atoms: C_25  and  C_26
REMARK    7  A    between atoms: C_26  and  N_27
REMARK                            x       y       z     vdW  Elec       q    Type
REMARK                         _______ _______ _______ _____ _____    ______ ____
ROOT
ATOM      1  O   UNL     1     -12.410  11.232  68.264  0.00  0.00    -0.287 OA
ATOM      2  C   UNL     1     -11.770  11.689  69.257  0.00  0.00    +0.196 C 
ENDROOT
BRANCH   2   3
ATOM      3  C   UNL     1     -11.640  13.137  69.481  0.00  0.00    +0.045 A 
ATOM      4  C   UNL     1     -11.239  14.011  68.475  0.00  0.00    +0.033 A 
ATOM      5  S   UNL     1     -10.827  15.396  69.406  0.00  0.00    -0.087 S 
ATOM      6  C   UNL     1     -11.529  14.921  70.900  0.00  0.00    +0.033 A 
ATOM      7  C   UNL     1     -11.659  15.433  72.186  0.00  0.00    +0.048 A 
ATOM      8  C   UNL     1     -12.672  15.000  73.034  0.00  0.00    +0.196 A 
ATOM      9  O   UNL     1     -13.017  15.811  74.092  0.00  0.00    -0.287 OA
ATOM     10  C   UNL     1     -13.638  14.186  72.457  0.00  0.00    +0.042 A 
ATOM     11  C   UNL     1     -13.240  13.377  71.402  0.00  0.00    +0.004 A 
ATOM     12  C   UNL     1     -12.293  13.833  70.491  0.00  0.00    +0.010 A 
BRANCH   4  13
ATOM     13  C   UNL     1     -11.153  13.758  67.032  0.00  0.00    +0.006 A 
ATOM     14  C   UNL     1     -12.300  13.670  66.256  0.00  0.00    +0.004 A 
ATOM     15  C   UNL     1     -12.152  13.310  64.923  0.00  0.00    +0.042 A 
ATOM     16  C   UNL     1     -11.238  12.303  64.649  0.00  0.00    +0.196 A 
ATOM     17  O   UNL     1     -11.420  11.399  63.601  0.00  0.00    -0.287 OA
ATOM     18  C   UNL     1     -10.207  12.084  65.548  0.00  0.00    +0.042 A 
ATOM     19  C   UNL     1     -10.096  12.950  66.629  0.00  0.00    +0.004 A 
ENDBRANCH   4  13
ENDBRANCH   2   3
BRANCH   2  20
ATOM     20  C   UNL     1     -10.883  10.722  69.914  0.00  0.00    +0.039 A 
ATOM     21  C   UNL     1      -9.689  10.313  69.333  0.00  0.00    +0.006 A 
ATOM     22  C   UNL     1      -8.915   9.371  69.978  0.00  0.00    +0.037 A 
ATOM     23  C   UNL     1      -9.361   8.754  71.119  0.00  0.00    +0.139 A 
ATOM     24  C   UNL     1     -10.699   8.892  71.428  0.00  0.00    +0.037 A 
ATOM     25  C   UNL     1     -11.338  10.041  71.020  0.00  0.00    +0.006 A 
BRANCH  23  26
ATOM     26  O   UNL     1      -8.530   7.956  71.904  0.00  0.00    -0.474 OA
BRANCH  26  27
ATOM     27  C   UNL     1      -7.898   6.873  71.246  0.00  0.00    +0.223 C 
BRANCH  27  28
ATOM     28  C   UNL     1      -8.735   5.631  71.336  0.00  0.00    +0.120 C 
BRANCH  28  29
ATOM     29  N   UNL     1      -9.270   5.200  70.070  0.00  0.00    -0.270 NA
ATOM     30  C   UNL     1      -8.548   5.795  68.948  0.00  0.00    +0.072 C 
ATOM     31  C   UNL     1      -9.196   5.260  67.678  0.00  0.00    +0.017 C 
ATOM     32  C   UNL     1     -10.584   5.862  67.500  0.00  0.00    +0.003 C 
ATOM     33  C   UNL     1     -11.073   6.336  68.841  0.00  0.00    +0.017 C 
ATOM     34  C   UNL     1     -10.693   5.409  69.968  0.00  0.00    +0.072 C 
ENDBRANCH  28  29
ENDBRANCH  27  28
ENDBRANCH  26  27
ENDBRANCH  23  26
ENDBRANCH   2  20
TORSDOF 7
ENDMDL
MODEL 3
REMARK VINA RESULT:      -7.8      3.813      6.831
REMARK  Name = 
REMARK  7 active torsions:
REMARK  status: ('A' for Active; 'I' for Inactive)
REMARK    1  A    between atoms: C_2  and  C_3
REMARK    2  A    between atoms: C_2  and  C_20
REMARK    3  A    between atoms: C_12  and  C_13
REMARK    4  A    between atoms: C_23  and  O_24
REMARK    5  A    between atoms: O_24  and  C_25
REMARK    6  A    between atoms: C_25  and  C_26
REMARK    7  A    between atoms: C_26  and  N_27
REMARK                            x       y       z     vdW  Elec       q    Type
REMARK                         _______ _______ _______ _____ _____    ______ ____
ROOT
ATOM      1  O   UNL     1     -12.637  11.284  68.932  0.00  0.00    -0.287 OA
ATOM      2  C   UNL     1     -11.593  12.001  68.933  0.00  0.00    +0.196 C 
ENDROOT
BRANCH   2   3
ATOM      3  C   UNL     1     -11.650  13.433  69.265  0.00  0.00    +0.045 A 
ATOM      4  C   UNL     1     -11.533  14.425  68.297  0.00  0.00    +0.033 A 
ATOM      5  S   UNL     1     -11.204  15.792  69.284  0.00  0.00    -0.087 S 
ATOM      6  C   UNL     1     -11.606  15.112  70.809  0.00  0.00    +0.033 A 
ATOM      7  C   UNL     1     -11.626  15.509  72.142  0.00  0.00    +0.048 A 
ATOM      8  C   UNL     1     -12.431  14.864  73.073  0.00  0.00    +0.196 A 
ATOM      9  O   UNL     1     -12.739  15.536  74.235  0.00  0.00    -0.287 OA
ATOM     10  C   UNL     1     -13.337  13.946  72.557  0.00  0.00    +0.042 A 
ATOM     11  C   UNL     1     -12.977  13.283  71.392  0.00  0.00    +0.004 A 
ATOM     12  C   UNL     1     -12.249  13.945  70.409  0.00  0.00    +0.010 A 
BRANCH   4  13
ATOM     13  C   UNL     1     -11.617  14.286  66.838  0.00  0.00    +0.006 A 
ATOM     14  C   UNL     1     -12.579  13.473  66.255  0.00  0.00    +0.004 A 
ATOM     15  C   UNL     1     -12.526  13.294  64.879  0.00  0.00    +0.042 A 
ATOM     16  C   UNL     1     -11.266  13.121  64.324  0.00  0.00    +0.196 A 
ATOM     17  O   UNL     1     -11.052  12.313  63.205  0.00  0.00    -0.287 OA
ATOM     18  C   UNL     1     -10.170  13.625  65.003  0.00  0.00    +0.042 A 
ATOM     19  C   UNL     1     -10.405  14.358  66.161  0.00  0.00    +0.004 A 
ENDBRANCH   4  13
ENDBRANCH   2   3
BRANCH   2  20
ATOM     20  C   UNL     1     -10.445  11.414  68.231  0.00  0.00    +0.039 A 
ATOM     21  C   UNL     1      -9.143  11.823  68.492  0.00  0.00    +0.006 A 
ATOM     22  C   UNL     1      -8.107  11.264  67.773  0.00  0.00    +0.037 A 
ATOM     23  C   UNL     1      -8.353  10.401  66.736  0.00  0.00    +0.139 A 
ATOM     24  C   UNL     1      -9.647  10.341  66.260  0.00  0.00    +0.037 A 
ATOM     25  C   UNL     1     -10.670  10.600  67.145  0.00  0.00    +0.006 A 
BRANCH  23  26
ATOM     26  O   UNL     1      -7.337   9.665  66.126  0.00  0.00    -0.474 OA
BRANCH  26  27
ATOM     27  C   UNL     1      -7.031   8.414  66.713  0.00  0.00    +0.223 C 
BRANCH  27  28
ATOM     28  C   UNL     1      -7.943   7.341  66.191  0.00  0.00    +0.120 C 
BRANCH  28  29
ATOM     29  N   UNL     1      -8.740   6.712  67.212  0.00  0.00    -0.270 NA
ATOM     30  C   UNL     1     -10.169   6.819  66.925  0.00  0.00    +0.072 C 
ATOM     31  C   UNL     1     -10.898   6.114  68.061  0.00  0.00    +0.017 C 
ATOM     32  C   UNL     1     -10.784   6.926  69.345  0.00  0.00    +0.003 C 
ATOM     33  C   UNL     1      -9.589   7.833  69.231  0.00  0.00    +0.017 C 
ATOM     34  C   UNL     1      -8.420   7.181  68.537  0.00  0.00    +0.072 C 
ENDBRANCH  28  29
ENDBRANCH  27  28
ENDBRANCH  26  27
ENDBRANCH  23  26
ENDBRANCH   2  20
TORSDOF 7
ENDMDL
MODEL 4
REMARK VINA RESULT:      -7.8      5.191      8.733
REMARK  Name = 
REMARK  7 active torsions:
REMARK  status: ('A' for Active; 'I' for Inactive)
REMARK    1  A    between atoms: C_2  and  C_3
REMARK    2  A    between atoms: C_2  and  C_20
REMARK    3  A    between atoms: C_12  and  C_13
REMARK    4  A    between atoms: C_23  and  O_24
REMARK    5  A    between atoms: O_24  and  C_25
REMARK    6  A    between atoms: C_25  and  C_26
REMARK    7  A    between atoms: C_26  and  N_27
REMARK                            x       y       z     vdW  Elec       q    Type
REMARK                         _______ _______ _______ _____ _____    ______ ____
ROOT
ATOM      1  O   UNL     1      -8.658  11.966  68.464  0.00  0.00    -0.287 OA
ATOM      2  C   UNL     1      -9.478  11.063  68.121  0.00  0.00    +0.196 C 
ENDROOT
BRANCH   2   3
ATOM      3  C   UNL     1      -9.972  10.964  66.739  0.00  0.00    +0.045 A 
ATOM      4  C   UNL     1      -9.906   9.782  66.009  0.00  0.00    +0.033 A 
ATOM      5  S   UNL     1     -10.162  10.378  64.418  0.00  0.00    -0.087 S 
ATOM      6  C   UNL     1     -10.698  11.960  64.819  0.00  0.00    +0.033 A 
ATOM      7  C   UNL     1     -11.108  13.109  64.151  0.00  0.00    +0.048 A 
ATOM      8  C   UNL     1     -11.903  14.061  64.779  0.00  0.00    +0.196 A 
ATOM      9  O   UNL     1     -12.619  14.929  63.984  0.00  0.00    -0.287 OA
ATOM     10  C   UNL     1     -12.409  13.703  66.023  0.00  0.00    +0.042 A 
ATOM     11  C   UNL     1     -11.646  12.836  66.793  0.00  0.00    +0.004 A 
ATOM     12  C   UNL     1     -10.917  11.820  66.185  0.00  0.00    +0.010 A 
BRANCH   4  13
ATOM     13  C   UNL     1      -9.632   8.425  66.499  0.00  0.00    +0.006 A 
ATOM     14  C   UNL     1      -8.682   7.624  65.881  0.00  0.00    +0.004 A 
ATOM     15  C   UNL     1      -8.559   6.313  66.319  0.00  0.00    +0.042 A 
ATOM     16  C   UNL     1      -9.739   5.636  66.593  0.00  0.00    +0.196 A 
ATOM     17  O   UNL     1      -9.872   4.261  66.385  0.00  0.00    -0.287 OA
ATOM     18  C   UNL     1     -10.865   6.375  66.914  0.00  0.00    +0.042 A 
ATOM     19  C   UNL     1     -10.724   7.752  67.035  0.00  0.00    +0.004 A 
ENDBRANCH   4  13
ENDBRANCH   2   3
BRANCH   2  20
ATOM     20  C   UNL     1     -10.164  10.401  69.238  0.00  0.00    +0.039 A 
ATOM     21  C   UNL     1     -11.425  10.801  69.661  0.00  0.00    +0.006 A 
ATOM     22  C   UNL     1     -12.003  10.169  70.741  0.00  0.00    +0.037 A 
ATOM     23  C   UNL     1     -11.308   9.234  71.467  0.00  0.00    +0.139 A 
ATOM     24  C   UNL     1      -9.945   9.165  71.262  0.00  0.00    +0.037 A 
ATOM     25  C   UNL     1      -9.462   9.512  70.020  0.00  0.00    +0.006 A 
BRANCH  23  26
ATOM     26  O   UNL     1     -11.923   8.434  72.428  0.00  0.00    -0.474 OA
BRANCH  26  27
ATOM     27  C   UNL     1     -11.159   7.350  72.924  0.00  0.00    +0.223 C 
BRANCH  27  28
ATOM     28  C   UNL     1     -11.548   6.068  72.247  0.00  0.00    +0.120 C 
BRANCH  28  29
ATOM     29  N   UNL     1     -10.425   5.256  71.855  0.00  0.00    -0.270 NA
ATOM     30  C   UNL     1      -9.219   5.606  72.602  0.00  0.00    +0.072 C 
ATOM     31  C   UNL     1      -8.115   4.680  72.109  0.00  0.00    +0.017 C 
ATOM     32  C   UNL     1      -7.711   5.051  70.688  0.00  0.00    +0.003 C 
ATOM     33  C   UNL     1      -8.845   5.808  70.053  0.00  0.00    +0.017 C 
ATOM     34  C   UNL     1     -10.200   5.266  70.432  0.00  0.00    +0.072 C 
ENDBRANCH  28  29
ENDBRANCH  27  28
ENDBRANCH  26  27
ENDBRANCH  23  26
ENDBRANCH   2  20
TORSDOF 7
ENDMDL
MODEL 5
REMARK VINA RESULT:      -7.7      4.482      9.466
REMARK  Name = 
REMARK  7 active torsions:
REMARK  status: ('A' for Active; 'I' for Inactive)
REMARK    1  A    between atoms: C_2  and  C_3
REMARK    2  A    between atoms: C_2  and  C_20
REMARK    3  A    between atoms: C_12  and  C_13
REMARK    4  A    between atoms: C_23  and  O_24
REMARK    5  A    between atoms: O_24  and  C_25
REMARK    6  A    between atoms: C_25  and  C_26
REMARK    7  A    between atoms: C_26  and  N_27
REMARK                            x       y       z     vdW  Elec       q    Type
REMARK                         _______ _______ _______ _____ _____    ______ ____
ROOT
ATOM      1  O   UNL     1      -7.180  21.566  66.999  0.00  0.00    -0.287 OA
ATOM      2  C   UNL     1      -6.886  20.516  67.644  0.00  0.00    +0.196 C 
ENDROOT
BRANCH   2   3
ATOM      3  C   UNL     1      -5.487  20.103  67.834  0.00  0.00    +0.045 A 
ATOM      4  C   UNL     1      -4.666  19.749  66.768  0.00  0.00    +0.033 A 
ATOM      5  S   UNL     1      -3.395  18.946  67.601  0.00  0.00    -0.087 S 
ATOM      6  C   UNL     1      -3.785  19.437  69.200  0.00  0.00    +0.033 A 
ATOM      7  C   UNL     1      -3.293  19.243  70.486  0.00  0.00    +0.048 A 
ATOM      8  C   UNL     1      -3.572  20.145  71.507  0.00  0.00    +0.196 A 
ATOM      9  O   UNL     1      -2.743  20.151  72.606  0.00  0.00    -0.287 OA
ATOM     10  C   UNL     1      -4.196  21.324  71.119  0.00  0.00    +0.042 A 
ATOM     11  C   UNL     1      -5.033  21.266  70.013  0.00  0.00    +0.004 A 
ATOM     12  C   UNL     1      -4.718  20.436  68.943  0.00  0.00    +0.010 A 
BRANCH   4  13
ATOM     13  C   UNL     1      -4.892  19.969  65.334  0.00  0.00    +0.006 A 
ATOM     14  C   UNL     1      -5.432  18.970  64.538  0.00  0.00    +0.004 A 
ATOM     15  C   UNL     1      -5.507  19.202  63.171  0.00  0.00    +0.042 A 
ATOM     16  C   UNL     1      -4.414  19.824  62.586  0.00  0.00    +0.196 A 
ATOM     17  O   UNL     1      -4.015  19.549  61.277  0.00  0.00    -0.287 OA
ATOM     18  C   UNL     1      -3.596  20.609  63.382  0.00  0.00    +0.042 A 
ATOM     19  C   UNL     1      -3.973  20.802  64.706  0.00  0.00    +0.004 A 
ENDBRANCH   4  13
ENDBRANCH   2   3
BRANCH   2  20
ATOM     20  C   UNL     1      -8.002  19.583  67.839  0.00  0.00    +0.039 A 
ATOM     21  C   UNL     1      -7.791  18.226  68.050  0.00  0.00    +0.006 A 
ATOM     22  C   UNL     1      -8.879  17.390  68.187  0.00  0.00    +0.037 A 
ATOM     23  C   UNL     1     -10.156  17.859  68.008  0.00  0.00    +0.139 A 
ATOM     24  C   UNL     1     -10.294  19.096  67.412  0.00  0.00    +0.037 A 
ATOM     25  C   UNL     1      -9.285  20.015  67.597  0.00  0.00    +0.006 A 
BRANCH  23  26
ATOM     26  O   UNL     1     -11.278  17.100  68.336  0.00  0.00    -0.474 OA
BRANCH  26  27
ATOM     27  C   UNL     1     -11.031  15.858  68.970  0.00  0.00    +0.223 C 
BRANCH  27  28
ATOM     28  C   UNL     1     -12.313  15.230  69.433  0.00  0.00    +0.120 C 
BRANCH  28  29
ATOM     29  N   UNL     1     -12.716  15.643  70.752  0.00  0.00    -0.270 NA
ATOM     30  C   UNL     1     -11.572  15.772  71.651  0.00  0.00    +0.072 C 
ATOM     31  C   UNL     1     -12.122  16.220  72.999  0.00  0.00    +0.017 C 
ATOM     32  C   UNL     1     -12.899  15.085  73.655  0.00  0.00    +0.003 C 
ATOM     33  C   UNL     1     -13.326  14.119  72.584  0.00  0.00    +0.017 C 
ATOM     34  C   UNL     1     -13.747  14.803  71.308  0.00  0.00    +0.072 C 
ENDBRANCH  28  29
ENDBRANCH  27  28
ENDBRANCH  26  27
ENDBRANCH  23  26
ENDBRANCH   2  20
TORSDOF 7
ENDMDL
MODEL 6
REMARK VINA RESULT:      -7.6      2.604      5.672
REMARK  Name = 
REMARK  7 active torsions:
REMARK  status: ('A' for Active; 'I' for Inactive)
REMARK    1  A    between atoms: C_2  and  C_3
REMARK    2  A    between atoms: C_2  and  C_20
REMARK    3  A    between atoms: C_12  and  C_13
REMARK    4  A    between atoms: C_23  and  O_24
REMARK    5  A    between atoms: O_24  and  C_25
REMARK    6  A    between atoms: C_25  and  C_26
REMARK    7  A    between atoms: C_26  and  N_27
REMARK                            x       y       z     vdW  Elec       q    Type
REMARK                         _______ _______ _______ _____ _____    ______ ____
ROOT
ATOM      1  O   UNL     1     -12.360  16.407  68.895  0.00  0.00    -0.287 OA
ATOM      2  C   UNL     1     -11.407  15.710  68.437  0.00  0.00    +0.196 C 
ENDROOT
BRANCH   2   3
ATOM      3  C   UNL     1     -11.509  14.246  68.341  0.00  0.00    +0.045 A 
ATOM      4  C   UNL     1     -11.712  13.440  69.457  0.00  0.00    +0.033 A 
ATOM      5  S   UNL     1     -11.280  11.904  68.821  0.00  0.00    -0.087 S 
ATOM      6  C   UNL     1     -11.248  12.315  67.153  0.00  0.00    +0.033 A 
ATOM      7  C   UNL     1     -10.987  11.684  65.941  0.00  0.00    +0.048 A 
ATOM      8  C   UNL     1     -11.488  12.187  64.746  0.00  0.00    +0.196 A 
ATOM      9  O   UNL     1     -11.571  11.330  63.671  0.00  0.00    -0.287 OA
ATOM     10  C   UNL     1     -12.407  13.223  64.863  0.00  0.00    +0.042 A 
ATOM     11  C   UNL     1     -12.276  14.068  65.956  0.00  0.00    +0.004 A 
ATOM     12  C   UNL     1     -11.863  13.562  67.183  0.00  0.00    +0.010 A 
BRANCH   4  13
ATOM     13  C   UNL     1     -12.126  13.844  70.806  0.00  0.00    +0.006 A 
ATOM     14  C   UNL     1     -13.468  13.880  71.157  0.00  0.00    +0.004 A 
ATOM     15  C   UNL     1     -13.796  14.385  72.408  0.00  0.00    +0.042 A 
ATOM     16  C   UNL     1     -13.100  15.510  72.825  0.00  0.00    +0.196 A 
ATOM     17  O   UNL     1     -13.684  16.488  73.633  0.00  0.00    -0.287 OA
ATOM     18  C   UNL     1     -11.849  15.752  72.282  0.00  0.00    +0.042 A 
ATOM     19  C   UNL     1     -11.323  14.801  71.416  0.00  0.00    +0.004 A 
ENDBRANCH   4  13
ENDBRANCH   2   3
BRANCH   2  20
ATOM     20  C   UNL     1     -10.113  16.401  68.381  0.00  0.00    +0.039 A 
ATOM     21  C   UNL     1     -10.007  17.771  68.586  0.00  0.00    +0.006 A 
ATOM     22  C   UNL     1      -8.771  18.372  68.481  0.00  0.00    +0.037 A 
ATOM     23  C   UNL     1      -7.672  17.660  68.070  0.00  0.00    +0.139 A 
ATOM     24  C   UNL     1      -7.901  16.425  67.498  0.00  0.00    +0.037 A 
ATOM     25  C   UNL     1      -9.013  15.724  67.905  0.00  0.00    +0.006 A 
BRANCH  23  26
ATOM     26  O   UNL     1      -6.380  18.178  68.149  0.00  0.00    -0.474 OA
BRANCH  26  27
ATOM     27  C   UNL     1      -5.417  17.365  68.792  0.00  0.00    +0.223 C 
BRANCH  27  28
ATOM     28  C   UNL     1      -5.529  17.483  70.285  0.00  0.00    +0.120 C 
BRANCH  28  29
ATOM     29  N   UNL     1      -4.660  18.481  70.853  0.00  0.00    -0.270 NA
ATOM     30  C   UNL     1      -5.400  19.671  71.264  0.00  0.00    +0.072 C 
ATOM     31  C   UNL     1      -4.381  20.639  71.853  0.00  0.00    +0.017 C 
ATOM     32  C   UNL     1      -3.490  21.200  70.752  0.00  0.00    +0.003 C 
ATOM     33  C   UNL     1      -3.529  20.256  69.581  0.00  0.00    +0.017 C 
ATOM     34  C   UNL     1      -3.550  18.806  69.993  0.00  0.00    +0.072 C 
ENDBRANCH  28  29
ENDBRANCH  27  28
ENDBRANCH  26  27
ENDBRANCH  23  26
ENDBRANCH   2  20
TORSDOF 7
ENDMDL
MODEL 7
REMARK VINA RESULT:      -7.5      2.345      5.434
REMARK  Name = 
REMARK  7 active torsions:
REMARK  status: ('A' for Active; 'I' for Inactive)
REMARK    1  A    between atoms: C_2  and  C_3
REMARK    2  A    between atoms: C_2  and  C_20
REMARK    3  A    between atoms: C_12  and  C_13
REMARK    4  A    between atoms: C_23  and  O_24
REMARK    5  A    between atoms: O_24  and  C_25
REMARK    6  A    between atoms: C_25  and  C_26
REMARK    7  A    between atoms: C_26  and  N_27
REMARK                            x       y       z     vdW  Elec       q    Type
REMARK                         _______ _______ _______ _____ _____    ______ ____
ROOT
ATOM      1  O   UNL     1     -11.665  17.033  68.489  0.00  0.00    -0.287 OA
ATOM      2  C   UNL     1     -11.048  16.172  67.794  0.00  0.00    +0.196 C 
ENDROOT
BRANCH   2   3
ATOM      3  C   UNL     1     -11.369  14.740  67.891  0.00  0.00    +0.045 A 
ATOM      4  C   UNL     1     -11.771  14.148  69.085  0.00  0.00    +0.033 A 
ATOM      5  S   UNL     1     -11.539  12.488  68.707  0.00  0.00    -0.087 S 
ATOM      6  C   UNL     1     -11.329  12.636  67.009  0.00  0.00    +0.033 A 
ATOM      7  C   UNL     1     -11.085  11.801  65.924  0.00  0.00    +0.048 A 
ATOM      8  C   UNL     1     -11.419  12.186  64.630  0.00  0.00    +0.196 A 
ATOM      9  O   UNL     1     -11.559  11.199  63.680  0.00  0.00    -0.287 OA
ATOM     10  C   UNL     1     -12.172  13.348  64.520  0.00  0.00    +0.042 A 
ATOM     11  C   UNL     1     -11.988  14.320  65.493  0.00  0.00    +0.004 A 
ATOM     12  C   UNL     1     -11.744  13.949  66.811  0.00  0.00    +0.010 A 
BRANCH   4  13
ATOM     13  C   UNL     1     -12.210  14.804  70.322  0.00  0.00    +0.006 A 
ATOM     14  C   UNL     1     -11.317  15.528  71.099  0.00  0.00    +0.004 A 
ATOM     15  C   UNL     1     -11.771  16.021  72.315  0.00  0.00    +0.042 A 
ATOM     16  C   UNL     1     -12.575  15.176  73.066  0.00  0.00    +0.196 A 
ATOM     17  O   UNL     1     -12.560  15.183  74.462  0.00  0.00    -0.287 OA
ATOM     18  C   UNL     1     -13.281  14.181  72.411  0.00  0.00    +0.042 A 
ATOM     19  C   UNL     1     -13.214  14.146  71.023  0.00  0.00    +0.004 A 
ENDBRANCH   4  13
ENDBRANCH   2   3
BRANCH   2  20
ATOM     20  C   UNL     1      -9.788  16.645  67.209  0.00  0.00    +0.039 A 
ATOM     21  C   UNL     1      -8.598  15.948  67.375  0.00  0.00    +0.006 A 
ATOM     22  C   UNL     1      -7.437  16.462  66.836  0.00  0.00    +0.037 A 
ATOM     23  C   UNL     1      -7.423  17.697  66.240  0.00  0.00    +0.139 A 
ATOM     24  C   UNL     1      -8.516  18.512  66.453  0.00  0.00    +0.037 A 
ATOM     25  C   UNL     1      -9.735  17.910  66.668  0.00  0.00    +0.006 A 
BRANCH  23  26
ATOM     26  O   UNL     1      -6.327  18.156  65.510  0.00  0.00    -0.474 OA
BRANCH  26  27
ATOM     27  C   UNL     1      -5.993  19.522  65.672  0.00  0.00    +0.223 C 
BRANCH  27  28
ATOM     28  C   UNL     1      -4.612  19.670  66.241  0.00  0.00    +0.120 C 
BRANCH  28  29
ATOM     29  N   UNL     1      -4.595  19.966  67.650  0.00  0.00    -0.270 NA
ATOM     30  C   UNL     1      -4.379  18.764  68.452  0.00  0.00    +0.072 C 
ATOM     31  C   UNL     1      -4.372  19.205  69.910  0.00  0.00    +0.017 C 
ATOM     32  C   UNL     1      -5.774  19.614  70.344  0.00  0.00    +0.003 C 
ATOM     33  C   UNL     1      -6.570  19.964  69.116  0.00  0.00    +0.017 C 
ATOM     34  C   UNL     1      -5.759  20.699  68.079  0.00  0.00    +0.072 C 
ENDBRANCH  28  29
ENDBRANCH  27  28
ENDBRANCH  26  27
ENDBRANCH  23  26
ENDBRANCH   2  20
TORSDOF 7
ENDMDL
MODEL 8
REMARK VINA RESULT:      -7.4      2.524      5.553
REMARK  Name = 
REMARK  7 active torsions:
REMARK  status: ('A' for Active; 'I' for Inactive)
REMARK    1  A    between atoms: C_2  and  C_3
REMARK    2  A    between atoms: C_2  and  C_20
REMARK    3  A    between atoms: C_12  and  C_13
REMARK    4  A    between atoms: C_23  and  O_24
REMARK    5  A    between atoms: O_24  and  C_25
REMARK    6  A    between atoms: C_25  and  C_26
REMARK    7  A    between atoms: C_26  and  N_27
REMARK                            x       y       z     vdW  Elec       q    Type
REMARK                         _______ _______ _______ _____ _____    ______ ____
ROOT
ATOM      1  O   UNL     1     -11.263  17.405  67.971  0.00  0.00    -0.287 OA
ATOM      2  C   UNL     1     -10.566  16.349  67.901  0.00  0.00    +0.196 C 
ENDROOT
BRANCH   2   3
ATOM      3  C   UNL     1     -11.189  15.018  67.966  0.00  0.00    +0.045 A 
ATOM      4  C   UNL     1     -11.834  14.554  69.109  0.00  0.00    +0.033 A 
ATOM      5  S   UNL     1     -11.915  12.873  68.766  0.00  0.00    -0.087 S 
ATOM      6  C   UNL     1     -11.495  12.929  67.101  0.00  0.00    +0.033 A 
ATOM      7  C   UNL     1     -11.315  12.032  66.053  0.00  0.00    +0.048 A 
ATOM      8  C   UNL     1     -11.418  12.443  64.729  0.00  0.00    +0.196 A 
ATOM      9  O   UNL     1     -11.657  11.482  63.773  0.00  0.00    -0.287 OA
ATOM     10  C   UNL     1     -11.894  13.733  64.531  0.00  0.00    +0.042 A 
ATOM     11  C   UNL     1     -11.617  14.671  65.516  0.00  0.00    +0.004 A 
ATOM     12  C   UNL     1     -11.601  14.293  66.854  0.00  0.00    +0.010 A 
BRANCH   4  13
ATOM     13  C   UNL     1     -12.258  15.320  70.287  0.00  0.00    +0.006 A 
ATOM     14  C   UNL     1     -11.323  15.840  71.172  0.00  0.00    +0.004 A 
ATOM     15  C   UNL     1     -11.796  16.450  72.326  0.00  0.00    +0.042 A 
ATOM     16  C   UNL     1     -12.856  15.826  72.968  0.00  0.00    +0.196 A 
ATOM     17  O   UNL     1     -13.009  15.861  74.356  0.00  0.00    -0.287 OA
ATOM     18  C   UNL     1     -13.686  15.004  72.225  0.00  0.00    +0.042 A 
ATOM     19  C   UNL     1     -13.462  14.923  70.856  0.00  0.00    +0.004 A 
ENDBRANCH   4  13
ENDBRANCH   2   3
BRANCH   2  20
ATOM     20  C   UNL     1      -9.130  16.544  68.135  0.00  0.00    +0.039 A 
ATOM     21  C   UNL     1      -8.606  17.788  68.460  0.00  0.00    +0.006 A 
ATOM     22  C   UNL     1      -7.244  17.920  68.629  0.00  0.00    +0.037 A 
ATOM     23  C   UNL     1      -6.396  16.872  68.371  0.00  0.00    +0.139 A 
ATOM     24  C   UNL     1      -6.915  15.800  67.674  0.00  0.00    +0.037 A 
ATOM     25  C   UNL     1      -8.257  15.529  67.817  0.00  0.00    +0.006 A 
BRANCH  23  26
ATOM     26  O   UNL     1      -5.048  16.905  68.723  0.00  0.00    -0.474 OA
BRANCH  26  27
ATOM     27  C   UNL     1      -4.120  16.881  67.654  0.00  0.00    +0.223 C 
BRANCH  27  28
ATOM     28  C   UNL     1      -3.458  18.219  67.491  0.00  0.00    +0.120 C 
BRANCH  28  29
ATOM     29  N   UNL     1      -3.949  18.975  66.368  0.00  0.00    -0.270 NA
ATOM     30  C   UNL     1      -4.787  20.092  66.795  0.00  0.00    +0.072 C 
ATOM     31  C   UNL     1      -5.233  20.814  65.529  0.00  0.00    +0.017 C 
ATOM     32  C   UNL     1      -6.232  19.959  64.759  0.00  0.00    +0.003 C 
ATOM     33  C   UNL     1      -6.052  18.525  65.175  0.00  0.00    +0.017 C 
ATOM     34  C   UNL     1      -4.607  18.150  65.387  0.00  0.00    +0.072 C 
ENDBRANCH  28  29
ENDBRANCH  27  28
ENDBRANCH  26  27
ENDBRANCH  23  26
ENDBRANCH   2  20
TORSDOF 7
ENDMDL
MODEL 9
REMARK VINA RESULT:      -7.4      3.784      6.665
REMARK  Name = 
REMARK  7 active torsions:
REMARK  status: ('A' for Active; 'I' for Inactive)
REMARK    1  A    between atoms: C_2  and  C_3
REMARK    2  A    between atoms: C_2  and  C_20
REMARK    3  A    between atoms: C_12  and  C_13
REMARK    4  A    between atoms: C_23  and  O_24
REMARK    5  A    between atoms: O_24  and  C_25
REMARK    6  A    between atoms: C_25  and  C_26
REMARK    7  A    between atoms: C_26  and  N_27
REMARK                            x       y       z     vdW  Elec       q    Type
REMARK                         _______ _______ _______ _____ _____    ______ ____
ROOT
ATOM      1  O   UNL     1     -12.532  11.268  69.004  0.00  0.00    -0.287 OA
ATOM      2  C   UNL     1     -11.531  12.039  68.909  0.00  0.00    +0.196 C 
ENDROOT
BRANCH   2   3
ATOM      3  C   UNL     1     -11.634  13.469  69.234  0.00  0.00    +0.045 A 
ATOM      4  C   UNL     1     -11.547  14.460  68.261  0.00  0.00    +0.033 A 
ATOM      5  S   UNL     1     -11.263  15.842  69.242  0.00  0.00    -0.087 S 
ATOM      6  C   UNL     1     -11.646  15.157  70.770  0.00  0.00    +0.033 A 
ATOM      7  C   UNL     1     -11.680  15.560  72.100  0.00  0.00    +0.048 A 
ATOM      8  C   UNL     1     -12.466  14.893  73.034  0.00  0.00    +0.196 A 
ATOM      9  O   UNL     1     -12.798  15.561  74.192  0.00  0.00    -0.287 OA
ATOM     10  C   UNL     1     -13.342  13.944  72.521  0.00  0.00    +0.042 A 
ATOM     11  C   UNL     1     -12.959  13.288  71.360  0.00  0.00    +0.004 A 
ATOM     12  C   UNL     1     -12.251  13.968  70.375  0.00  0.00    +0.010 A 
BRANCH   4  13
ATOM     13  C   UNL     1     -11.624  14.311  66.803  0.00  0.00    +0.006 A 
ATOM     14  C   UNL     1     -12.611  13.529  66.219  0.00  0.00    +0.004 A 
ATOM     15  C   UNL     1     -12.553  13.336  64.845  0.00  0.00    +0.042 A 
ATOM     16  C   UNL     1     -11.296  13.112  64.302  0.00  0.00    +0.196 A 
ATOM     17  O   UNL     1     -11.103  12.287  63.192  0.00  0.00    -0.287 OA
ATOM     18  C   UNL     1     -10.188  13.582  64.986  0.00  0.00    +0.042 A 
ATOM     19  C   UNL     1     -10.405  14.333  66.135  0.00  0.00    +0.004 A 
ENDBRANCH   4  13
ENDBRANCH   2   3
BRANCH   2  20
ATOM     20  C   UNL     1     -10.418  11.503  68.115  0.00  0.00    +0.039 A 
ATOM     21  C   UNL     1     -10.625  10.587  67.091  0.00  0.00    +0.006 A 
ATOM     22  C   UNL     1      -9.538  10.088  66.406  0.00  0.00    +0.037 A 
ATOM     23  C   UNL     1      -8.258  10.395  66.793  0.00  0.00    +0.139 A 
ATOM     24  C   UNL     1      -8.098  10.969  68.038  0.00  0.00    +0.037 A 
ATOM     25  C   UNL     1      -9.127  11.743  68.527  0.00  0.00    +0.006 A 
BRANCH  23  26
ATOM     26  O   UNL     1      -7.150  10.079  66.009  0.00  0.00    -0.474 OA
BRANCH  26  27
ATOM     27  C   UNL     1      -7.354  10.075  64.609  0.00  0.00    +0.223 C 
BRANCH  27  28
ATOM     28  C   UNL     1      -7.232   8.685  64.054  0.00  0.00    +0.120 C 
BRANCH  28  29
ATOM     29  N   UNL     1      -8.279   8.337  63.130  0.00  0.00    -0.270 NA
ATOM     30  C   UNL     1      -7.775   7.526  62.024  0.00  0.00    +0.072 C 
ATOM     31  C   UNL     1      -8.968   7.217  61.129  0.00  0.00    +0.017 C 
ATOM     32  C   UNL     1      -9.421   8.476  60.401  0.00  0.00    +0.003 C 
ATOM     33  C   UNL     1      -8.933   9.673  61.171  0.00  0.00    +0.017 C 
ATOM     34  C   UNL     1      -9.015   9.486  62.665  0.00  0.00    +0.072 C 
ENDBRANCH  28  29
ENDBRANCH  27  28
ENDBRANCH  26  27
ENDBRANCH  23  26
ENDBRANCH   2  20
TORSDOF 7
ENDMDL
