MODEL 1
REMARK VINA RESULT:      -4.4      0.000      0.000
REMARK  Name = 
REMARK  5 active torsions:
REMARK  status: ('A' for Active; 'I' for Inactive)
REMARK    1  A    between atoms: P_2  and  N_3
REMARK    2  A    between atoms: N_3  and  C_4
REMARK    3  A    between atoms: N_3  and  C_7
REMARK    4  A    between atoms: C_4  and  C_5
REMARK    5  A    between atoms: C_7  and  C_8
REMARK                            x       y       z     vdW  Elec       q    Type
REMARK                         _______ _______ _______ _____ _____    ______ ____
ROOT
ATOM      1  O   UNL     1     -10.947  17.857  64.963  0.00  0.00    -0.253 OA
ATOM      2  P   UNL     1     -10.322  17.289  66.177  0.00  0.00    +0.365 P 
ATOM      3  O   UNL     1     -10.937  18.054  67.569  0.00  0.00    -0.291 OA
ATOM      4  C   UNL     1     -10.303  19.283  67.737  0.00  0.00    +0.153 C 
ATOM      5  C   UNL     1      -9.726  19.797  66.440  0.00  0.00    +0.052 C 
ATOM      6  C   UNL     1      -8.389  19.111  66.206  0.00  0.00    +0.102 C 
ATOM      7  N   UNL     1      -8.601  17.677  66.141  0.00  0.00    -0.133 NA
ENDROOT
BRANCH   2   8
ATOM      8  N   UNL     1     -10.429  15.571  66.293  0.00  0.00    -0.195 NA
BRANCH   8   9
ATOM      9  C   UNL     1      -9.462  15.002  67.192  0.00  0.00    +0.099 C 
BRANCH   9  10
ATOM     10  C   UNL     1     -10.156  14.064  68.137  0.00  0.00    +0.113 C 
ATOM     11 CL   UNL     1     -11.813  14.606  68.523  0.00  0.00    -0.112 Cl
ENDBRANCH   9  10
ENDBRANCH   8   9
BRANCH   8  12
ATOM     12  C   UNL     1     -10.606  14.876  65.069  0.00  0.00    +0.099 C 
BRANCH  12  13
ATOM     13  C   UNL     1     -12.023  14.526  64.731  0.00  0.00    +0.113 C 
ATOM     14 CL   UNL     1     -12.345  12.906  65.416  0.00  0.00    -0.112 Cl
ENDBRANCH  12  13
ENDBRANCH   8  12
ENDBRANCH   2   8
TORSDOF 5
ENDMDL
MODEL 2
REMARK VINA RESULT:      -4.3      1.642      2.827
REMARK  Name = 
REMARK  5 active torsions:
REMARK  status: ('A' for Active; 'I' for Inactive)
REMARK    1  A    between atoms: P_2  and  N_3
REMARK    2  A    between atoms: N_3  and  C_4
REMARK    3  A    between atoms: N_3  and  C_7
REMARK    4  A    between atoms: C_4  and  C_5
REMARK    5  A    between atoms: C_7  and  C_8
REMARK                            x       y       z     vdW  Elec       q    Type
REMARK                         _______ _______ _______ _____ _____    ______ ____
ROOT
ATOM      1  O   UNL     1     -10.464  17.321  65.524  0.00  0.00    -0.253 OA
ATOM      2  P   UNL     1     -10.187  17.344  66.976  0.00  0.00    +0.365 P 
ATOM      3  O   UNL     1     -10.947  18.685  67.700  0.00  0.00    -0.291 OA
ATOM      4  C   UNL     1     -10.184  19.828  67.469  0.00  0.00    +0.153 C 
ATOM      5  C   UNL     1      -9.288  19.668  66.264  0.00  0.00    +0.052 C 
ATOM      6  C   UNL     1      -8.049  18.895  66.688  0.00  0.00    +0.102 C 
ATOM      7  N   UNL     1      -8.455  17.599  67.200  0.00  0.00    -0.133 NA
ENDROOT
BRANCH   2   8
ATOM      8  N   UNL     1     -10.570  15.874  67.795  0.00  0.00    -0.195 NA
BRANCH   8   9
ATOM      9  C   UNL     1     -10.574  14.726  66.930  0.00  0.00    +0.099 C 
BRANCH   9  10
ATOM     10  C   UNL     1     -11.898  14.028  67.039  0.00  0.00    +0.113 C 
ATOM     11 CL   UNL     1     -12.764  13.985  65.477  0.00  0.00    -0.112 Cl
ENDBRANCH   9  10
ENDBRANCH   8   9
BRANCH   8  12
ATOM     12  C   UNL     1     -11.640  15.943  68.724  0.00  0.00    +0.099 C 
BRANCH  12  13
ATOM     13  C   UNL     1     -11.235  16.058  70.161  0.00  0.00    +0.113 C 
ATOM     14 CL   UNL     1     -12.700  15.776  71.147  0.00  0.00    -0.112 Cl
ENDBRANCH  12  13
ENDBRANCH   8  12
ENDBRANCH   2   8
TORSDOF 5
ENDMDL
MODEL 3
REMARK VINA RESULT:      -4.3      0.812      2.195
REMARK  Name = 
REMARK  5 active torsions:
REMARK  status: ('A' for Active; 'I' for Inactive)
REMARK    1  A    between atoms: P_2  and  N_3
REMARK    2  A    between atoms: N_3  and  C_4
REMARK    3  A    between atoms: N_3  and  C_7
REMARK    4  A    between atoms: C_4  and  C_5
REMARK    5  A    between atoms: C_7  and  C_8
REMARK                            x       y       z     vdW  Elec       q    Type
REMARK                         _______ _______ _______ _____ _____    ______ ____
ROOT
ATOM      1  O   UNL     1     -10.945  17.768  64.951  0.00  0.00    -0.253 OA
ATOM      2  P   UNL     1     -10.339  17.213  66.180  0.00  0.00    +0.365 P 
ATOM      3  O   UNL     1     -10.957  18.010  67.553  0.00  0.00    -0.291 OA
ATOM      4  C   UNL     1     -10.309  19.234  67.706  0.00  0.00    +0.153 C 
ATOM      5  C   UNL     1      -9.713  19.717  66.405  0.00  0.00    +0.052 C 
ATOM      6  C   UNL     1      -8.383  19.011  66.197  0.00  0.00    +0.102 C 
ATOM      7  N   UNL     1      -8.613  17.579  66.154  0.00  0.00    -0.133 NA
ENDROOT
BRANCH   2   8
ATOM      8  N   UNL     1     -10.469  15.498  66.325  0.00  0.00    -0.195 NA
BRANCH   8   9
ATOM      9  C   UNL     1     -10.623  14.832  65.061  0.00  0.00    +0.099 C 
BRANCH   9  10
ATOM     10  C   UNL     1     -12.073  14.507  64.846  0.00  0.00    +0.113 C 
ATOM     11 CL   UNL     1     -12.335  12.761  64.576  0.00  0.00    -0.112 Cl
ENDBRANCH   9  10
ENDBRANCH   8   9
BRANCH   8  12
ATOM     12  C   UNL     1     -11.304  15.026  67.370  0.00  0.00    +0.099 C 
BRANCH  12  13
ATOM     13  C   UNL     1     -10.711  13.950  68.228  0.00  0.00    +0.113 C 
ATOM     14 CL   UNL     1     -11.737  12.498  68.036  0.00  0.00    -0.112 Cl
ENDBRANCH  12  13
ENDBRANCH   8  12
ENDBRANCH   2   8
TORSDOF 5
ENDMDL
MODEL 4
REMARK VINA RESULT:      -4.3      1.441      1.789
REMARK  Name = 
REMARK  5 active torsions:
REMARK  status: ('A' for Active; 'I' for Inactive)
REMARK    1  A    between atoms: P_2  and  N_3
REMARK    2  A    between atoms: N_3  and  C_4
REMARK    3  A    between atoms: N_3  and  C_7
REMARK    4  A    between atoms: C_4  and  C_5
REMARK    5  A    between atoms: C_7  and  C_8
REMARK                            x       y       z     vdW  Elec       q    Type
REMARK                         _______ _______ _______ _____ _____    ______ ____
ROOT
ATOM      1  O   UNL     1      -8.532  17.240  66.584  0.00  0.00    -0.253 OA
ATOM      2  P   UNL     1     -10.010  17.247  66.624  0.00  0.00    +0.365 P 
ATOM      3  O   UNL     1     -10.625  18.330  65.462  0.00  0.00    -0.291 OA
ATOM      4  C   UNL     1     -10.539  19.631  65.954  0.00  0.00    +0.153 C 
ATOM      5  C   UNL     1      -9.490  19.753  67.033  0.00  0.00    +0.052 C 
ATOM      6  C   UNL     1     -10.094  19.272  68.343  0.00  0.00    +0.102 C 
ATOM      7  N   UNL     1     -10.512  17.891  68.189  0.00  0.00    -0.133 NA
ENDROOT
BRANCH   2   8
ATOM      8  N   UNL     1     -10.733  15.686  66.488  0.00  0.00    -0.195 NA
BRANCH   8   9
ATOM      9  C   UNL     1     -10.417  14.816  67.588  0.00  0.00    +0.099 C 
BRANCH   9  10
ATOM     10  C   UNL     1     -11.676  14.168  68.085  0.00  0.00    +0.113 C 
ATOM     11 CL   UNL     1     -11.824  12.478  67.530  0.00  0.00    -0.112 Cl
ENDBRANCH   9  10
ENDBRANCH   8   9
BRANCH   8  12
ATOM     12  C   UNL     1     -10.679  15.089  65.202  0.00  0.00    +0.099 C 
BRANCH  12  13
ATOM     13  C   UNL     1     -12.008  14.843  64.554  0.00  0.00    +0.113 C 
ATOM     14 CL   UNL     1     -11.966  13.189  63.876  0.00  0.00    -0.112 Cl
ENDBRANCH  12  13
ENDBRANCH   8  12
ENDBRANCH   2   8
TORSDOF 5
ENDMDL
MODEL 5
REMARK VINA RESULT:      -4.2      4.423      5.620
REMARK  Name = 
REMARK  5 active torsions:
REMARK  status: ('A' for Active; 'I' for Inactive)
REMARK    1  A    between atoms: P_2  and  N_3
REMARK    2  A    between atoms: N_3  and  C_4
REMARK    3  A    between atoms: N_3  and  C_7
REMARK    4  A    between atoms: C_4  and  C_5
REMARK    5  A    between atoms: C_7  and  C_8
REMARK                            x       y       z     vdW  Elec       q    Type
REMARK                         _______ _______ _______ _____ _____    ______ ____
ROOT
ATOM      1  O   UNL     1     -12.572  13.101  71.106  0.00  0.00    -0.253 OA
ATOM      2  P   UNL     1     -12.222  14.500  70.778  0.00  0.00    +0.365 P 
ATOM      3  O   UNL     1     -11.193  15.144  71.973  0.00  0.00    -0.291 OA
ATOM      4  C   UNL     1     -11.952  15.523  73.079  0.00  0.00    +0.153 C 
ATOM      5  C   UNL     1     -13.270  14.789  73.130  0.00  0.00    +0.052 C 
ATOM      6  C   UNL     1     -14.243  15.486  72.193  0.00  0.00    +0.102 C 
ATOM      7  N   UNL     1     -13.697  15.465  70.849  0.00  0.00    -0.133 NA
ENDROOT
BRANCH   2   8
ATOM      8  N   UNL     1     -11.575  14.718  69.194  0.00  0.00    -0.195 NA
BRANCH   8   9
ATOM      9  C   UNL     1     -11.673  16.072  68.722  0.00  0.00    +0.099 C 
BRANCH   9  10
ATOM     10  C   UNL     1     -10.401  16.802  69.041  0.00  0.00    +0.113 C 
ATOM     11 CL   UNL     1      -9.005  15.695  69.161  0.00  0.00    -0.112 Cl
ENDBRANCH   9  10
ENDBRANCH   8   9
BRANCH   8  12
ATOM     12  C   UNL     1     -11.905  13.715  68.246  0.00  0.00    +0.099 C 
BRANCH  12  13
ATOM     13  C   UNL     1     -11.871  14.152  66.813  0.00  0.00    +0.113 C 
ATOM     14 CL   UNL     1     -12.170  12.701  65.812  0.00  0.00    -0.112 Cl
ENDBRANCH  12  13
ENDBRANCH   8  12
ENDBRANCH   2   8
TORSDOF 5
ENDMDL
MODEL 6
REMARK VINA RESULT:      -4.2      1.763      1.827
REMARK  Name = 
REMARK  5 active torsions:
REMARK  status: ('A' for Active; 'I' for Inactive)
REMARK    1  A    between atoms: P_2  and  N_3
REMARK    2  A    between atoms: N_3  and  C_4
REMARK    3  A    between atoms: N_3  and  C_7
REMARK    4  A    between atoms: C_4  and  C_5
REMARK    5  A    between atoms: C_7  and  C_8
REMARK                            x       y       z     vdW  Elec       q    Type
REMARK                         _______ _______ _______ _____ _____    ______ ____
ROOT
ATOM      1  O   UNL     1      -9.589  17.613  65.876  0.00  0.00    -0.253 OA
ATOM      2  P   UNL     1     -10.007  17.600  67.294  0.00  0.00    +0.365 P 
ATOM      3  O   UNL     1     -10.976  18.960  67.636  0.00  0.00    -0.291 OA
ATOM      4  C   UNL     1     -10.158  20.074  67.818  0.00  0.00    +0.153 C 
ATOM      5  C   UNL     1      -8.815  19.896  67.150  0.00  0.00    +0.052 C 
ATOM      6  C   UNL     1      -7.931  19.066  68.067  0.00  0.00    +0.102 C 
ATOM      7  N   UNL     1      -8.564  17.781  68.294  0.00  0.00    -0.133 NA
ENDROOT
BRANCH   2   8
ATOM      8  N   UNL     1     -10.766  16.135  67.798  0.00  0.00    -0.195 NA
BRANCH   8   9
ATOM      9  C   UNL     1     -10.345  15.696  69.101  0.00  0.00    +0.099 C 
BRANCH   9  10
ATOM     10  C   UNL     1     -11.372  16.103  70.117  0.00  0.00    +0.113 C 
ATOM     11 CL   UNL     1     -12.443  14.746  70.567  0.00  0.00    -0.112 Cl
ENDBRANCH   9  10
ENDBRANCH   8   9
BRANCH   8  12
ATOM     12  C   UNL     1     -10.864  15.118  66.814  0.00  0.00    +0.099 C 
BRANCH  12  13
ATOM     13  C   UNL     1     -11.965  14.124  67.027  0.00  0.00    +0.113 C 
ATOM     14 CL   UNL     1     -12.749  13.856  65.442  0.00  0.00    -0.112 Cl
ENDBRANCH  12  13
ENDBRANCH   8  12
ENDBRANCH   2   8
TORSDOF 5
ENDMDL
MODEL 7
REMARK VINA RESULT:      -4.1      1.623      1.969
REMARK  Name = 
REMARK  5 active torsions:
REMARK  status: ('A' for Active; 'I' for Inactive)
REMARK    1  A    between atoms: P_2  and  N_3
REMARK    2  A    between atoms: N_3  and  C_4
REMARK    3  A    between atoms: N_3  and  C_7
REMARK    4  A    between atoms: C_4  and  C_5
REMARK    5  A    between atoms: C_7  and  C_8
REMARK                            x       y       z     vdW  Elec       q    Type
REMARK                         _______ _______ _______ _____ _____    ______ ____
ROOT
ATOM      1  O   UNL     1     -11.058  17.585  68.135  0.00  0.00    -0.253 OA
ATOM      2  P   UNL     1     -10.034  17.420  67.082  0.00  0.00    +0.365 P 
ATOM      3  O   UNL     1      -8.531  18.011  67.624  0.00  0.00    -0.291 OA
ATOM      4  C   UNL     1      -8.515  19.400  67.513  0.00  0.00    +0.153 C 
ATOM      5  C   UNL     1      -9.912  19.975  67.495  0.00  0.00    +0.052 C 
ATOM      6  C   UNL     1     -10.464  19.845  66.084  0.00  0.00    +0.102 C 
ATOM      7  N   UNL     1     -10.483  18.441  65.715  0.00  0.00    -0.133 NA
ENDROOT
BRANCH   2   8
ATOM      8  N   UNL     1      -9.902  15.814  66.464  0.00  0.00    -0.195 NA
BRANCH   8   9
ATOM      9  C   UNL     1      -8.583  15.260  66.600  0.00  0.00    +0.099 C 
BRANCH   9  10
ATOM     10  C   UNL     1      -8.588  14.229  67.692  0.00  0.00    +0.113 C 
ATOM     11 CL   UNL     1      -8.893  12.587  67.061  0.00  0.00    -0.112 Cl
ENDBRANCH   9  10
ENDBRANCH   8   9
BRANCH   8  12
ATOM     12  C   UNL     1     -10.540  15.575  65.220  0.00  0.00    +0.099 C 
BRANCH  12  13
ATOM     13  C   UNL     1     -11.456  14.390  65.187  0.00  0.00    +0.113 C 
ATOM     14 CL   UNL     1     -12.155  14.217  66.824  0.00  0.00    -0.112 Cl
ENDBRANCH  12  13
ENDBRANCH   8  12
ENDBRANCH   2   8
TORSDOF 5
ENDMDL
MODEL 8
REMARK VINA RESULT:      -4.1      4.137      5.890
REMARK  Name = 
REMARK  5 active torsions:
REMARK  status: ('A' for Active; 'I' for Inactive)
REMARK    1  A    between atoms: P_2  and  N_3
REMARK    2  A    between atoms: N_3  and  C_4
REMARK    3  A    between atoms: N_3  and  C_7
REMARK    4  A    between atoms: C_4  and  C_5
REMARK    5  A    between atoms: C_7  and  C_8
REMARK                            x       y       z     vdW  Elec       q    Type
REMARK                         _______ _______ _______ _____ _____    ______ ____
ROOT
ATOM      1  O   UNL     1     -11.176  15.280  71.770  0.00  0.00    -0.253 OA
ATOM      2  P   UNL     1     -12.099  14.981  70.655  0.00  0.00    +0.365 P 
ATOM      3  O   UNL     1     -13.559  15.837  70.853  0.00  0.00    -0.291 OA
ATOM      4  C   UNL     1     -14.359  15.174  71.782  0.00  0.00    +0.153 C 
ATOM      5  C   UNL     1     -13.542  14.289  72.693  0.00  0.00    +0.052 C 
ATOM      6  C   UNL     1     -13.261  12.983  71.965  0.00  0.00    +0.102 C 
ATOM      7  N   UNL     1     -12.533  13.273  70.744  0.00  0.00    -0.133 NA
ENDROOT
BRANCH   2   8
ATOM      8  N   UNL     1     -11.423  15.229  69.086  0.00  0.00    -0.195 NA
BRANCH   8   9
ATOM      9  C   UNL     1     -11.299  14.016  68.325  0.00  0.00    +0.099 C 
BRANCH   9  10
ATOM     10  C   UNL     1     -12.005  14.181  67.010  0.00  0.00    +0.113 C 
ATOM     11 CL   UNL     1     -10.865  14.203  65.636  0.00  0.00    -0.112 Cl
ENDBRANCH   9  10
ENDBRANCH   8   9
BRANCH   8  12
ATOM     12  C   UNL     1     -10.311  16.107  69.022  0.00  0.00    +0.099 C 
BRANCH  12  13
ATOM     13  C   UNL     1     -10.511  17.334  68.185  0.00  0.00    +0.113 C 
ATOM     14 CL   UNL     1      -9.372  17.225  66.810  0.00  0.00    -0.112 Cl
ENDBRANCH  12  13
ENDBRANCH   8  12
ENDBRANCH   2   8
TORSDOF 5
ENDMDL
MODEL 9
REMARK VINA RESULT:      -4.0      3.497      5.266
REMARK  Name = 
REMARK  5 active torsions:
REMARK  status: ('A' for Active; 'I' for Inactive)
REMARK    1  A    between atoms: P_2  and  N_3
REMARK    2  A    between atoms: N_3  and  C_4
REMARK    3  A    between atoms: N_3  and  C_7
REMARK    4  A    between atoms: C_4  and  C_5
REMARK    5  A    between atoms: C_7  and  C_8
REMARK                            x       y       z     vdW  Elec       q    Type
REMARK                         _______ _______ _______ _____ _____    ______ ____
ROOT
ATOM      1  O   UNL     1     -12.130  11.912  66.460  0.00  0.00    -0.253 OA
ATOM      2  P   UNL     1     -11.658  13.225  65.968  0.00  0.00    +0.365 P 
ATOM      3  O   UNL     1     -12.685  13.795  64.734  0.00  0.00    -0.291 OA
ATOM      4  C   UNL     1     -12.364  13.157  63.537  0.00  0.00    +0.153 C 
ATOM      5  C   UNL     1     -11.656  11.844  63.775  0.00  0.00    +0.052 C 
ATOM      6  C   UNL     1     -10.188  12.135  64.043  0.00  0.00    +0.102 C 
ATOM      7  N   UNL     1     -10.083  12.992  65.208  0.00  0.00    -0.133 NA
ENDROOT
BRANCH   2   8
ATOM      8  N   UNL     1     -11.431  14.406  67.205  0.00  0.00    -0.195 NA
BRANCH   8   9
ATOM      9  C   UNL     1     -10.820  15.617  66.728  0.00  0.00    +0.099 C 
BRANCH   9  10
ATOM     10  C   UNL     1      -9.580  15.895  67.527  0.00  0.00    +0.113 C 
ATOM     11 CL   UNL     1      -8.112  15.886  66.511  0.00  0.00    -0.112 Cl
ENDBRANCH   9  10
ENDBRANCH   8   9
BRANCH   8  12
ATOM     12  C   UNL     1     -10.937  13.920  68.443  0.00  0.00    +0.099 C 
BRANCH  12  13
ATOM     13  C   UNL     1     -11.971  13.709  69.507  0.00  0.00    +0.113 C 
ATOM     14 CL   UNL     1     -11.920  11.979  69.956  0.00  0.00    -0.112 Cl
ENDBRANCH  12  13
ENDBRANCH   8  12
ENDBRANCH   2   8
TORSDOF 5
ENDMDL
