MODEL 1
REMARK VINA RESULT:      -6.3      0.000      0.000
REMARK  Name = 
REMARK  2 active torsions:
REMARK  status: ('A' for Active; 'I' for Inactive)
REMARK    1  A    between atoms: C_2  and  C_3
REMARK    2  A    between atoms: C_21  and  C_22
REMARK                            x       y       z     vdW  Elec       q    Type
REMARK                         _______ _______ _______ _____ _____    ______ ____
ROOT
ATOM      1  C   UNL     1     -10.144  15.677  66.523  0.00  0.00    +0.180 C 
ATOM      2  C   UNL     1     -10.685  14.301  66.629  0.00  0.00    +0.040 C 
ATOM      3  C   UNL     1     -10.451  14.232  68.256  0.00  0.00    +0.004 C 
ATOM      4  C   UNL     1     -11.541  12.927  68.408  0.00  0.00    +0.004 C 
ATOM      5  C   UNL     1     -10.211  11.877  68.453  0.00  0.00    +0.022 C 
ATOM      6  C   UNL     1     -10.066  11.892  66.860  0.00  0.00    -0.044 C 
ATOM      7  C   UNL     1      -9.192  10.930  66.519  0.00  0.00    -0.009 C 
ATOM      8  C   UNL     1     -11.244  10.506  68.408  0.00  0.00    +0.022 C 
ATOM      9  C   UNL     1     -11.622  10.664  69.977  0.00  0.00    -0.048 C 
ATOM     10  C   UNL     1     -11.561   9.545  70.681  0.00  0.00    -0.035 C 
ATOM     11  C   UNL     1     -10.164   9.077  71.000  0.00  0.00    +0.025 C 
ATOM     12  C   UNL     1      -9.344   9.866  69.972  0.00  0.00    +0.005 C 
ATOM     13  C   UNL     1     -12.463  11.838  70.318  0.00  0.00    +0.022 C 
ATOM     14  C   UNL     1      -9.980   9.483  68.676  0.00  0.00    +0.005 C 
ATOM     15  C   UNL     1     -11.596  13.062  70.020  0.00  0.00    +0.005 C 
ATOM     16  C   UNL     1     -11.604  15.384  68.447  0.00  0.00    +0.004 C 
ATOM     17  C   UNL     1      -9.840  13.185  66.185  0.00  0.00    +0.025 C 
ATOM     18  C   UNL     1     -10.746  16.419  67.714  0.00  0.00    +0.043 C 
ATOM     19  O   UNL     1     -10.518  16.393  65.405  0.00  0.00    -0.212 OA
ENDROOT
BRANCH   1  21
ATOM     20  C   UNL     1      -7.518  15.805  66.772  0.00  0.00    -0.012 C 
ATOM     21  C   UNL     1      -8.692  15.666  66.590  0.00  0.00    -0.049 C 
ENDBRANCH   1  21
BRANCH   2  22
ATOM     22  C   UNL     1     -12.138  14.215  66.385  0.00  0.00    +0.004 C 
ATOM     23  C   UNL     1     -12.540  13.671  65.039  0.00  0.00    +0.000 C 
ENDBRANCH   2  22
TORSDOF 2
ENDMDL
MODEL 2
REMARK VINA RESULT:      -6.3      2.462      5.989
REMARK  Name = 
REMARK  2 active torsions:
REMARK  status: ('A' for Active; 'I' for Inactive)
REMARK    1  A    between atoms: C_2  and  C_3
REMARK    2  A    between atoms: C_21  and  C_22
REMARK                            x       y       z     vdW  Elec       q    Type
REMARK                         _______ _______ _______ _____ _____    ______ ____
ROOT
ATOM      1  C   UNL     1     -11.227  12.093  66.905  0.00  0.00    +0.180 C 
ATOM      2  C   UNL     1     -10.794  13.339  67.582  0.00  0.00    +0.040 C 
ATOM      3  C   UNL     1     -10.455  14.103  66.164  0.00  0.00    +0.004 C 
ATOM      4  C   UNL     1     -10.493  15.632  66.923  0.00  0.00    +0.004 C 
ATOM      5  C   UNL     1      -8.799  15.595  66.985  0.00  0.00    +0.022 C 
ATOM      6  C   UNL     1      -8.806  14.673  68.292  0.00  0.00    -0.044 C 
ATOM      7  C   UNL     1      -7.551  14.630  68.770  0.00  0.00    -0.009 C 
ATOM      8  C   UNL     1      -8.765  17.033  67.925  0.00  0.00    +0.022 C 
ATOM      9  C   UNL     1      -9.050  17.960  66.626  0.00  0.00    -0.048 C 
ATOM     10  C   UNL     1      -8.263  19.018  66.512  0.00  0.00    -0.035 C 
ATOM     11  C   UNL     1      -6.857  18.710  66.062  0.00  0.00    +0.025 C 
ATOM     12  C   UNL     1      -6.773  17.207  66.355  0.00  0.00    +0.005 C 
ATOM     13  C   UNL     1     -10.410  17.847  66.044  0.00  0.00    +0.022 C 
ATOM     14  C   UNL     1      -7.125  17.131  67.805  0.00  0.00    +0.005 C 
ATOM     15  C   UNL     1     -10.507  16.418  65.508  0.00  0.00    +0.005 C 
ATOM     16  C   UNL     1     -12.057  14.099  65.807  0.00  0.00    +0.004 C 
ATOM     17  C   UNL     1      -9.474  13.358  68.223  0.00  0.00    +0.025 C 
ATOM     18  C   UNL     1     -12.075  12.570  65.727  0.00  0.00    +0.043 C 
ATOM     19  O   UNL     1     -12.041  11.254  67.637  0.00  0.00    -0.212 OA
ENDROOT
BRANCH   1  21
ATOM     20  C   UNL     1      -9.261  10.605  65.959  0.00  0.00    -0.012 C 
ATOM     21  C   UNL     1     -10.078  11.328  66.449  0.00  0.00    -0.049 C 
ENDBRANCH   1  21
BRANCH   2  22
ATOM     22  C   UNL     1     -11.896  14.074  68.231  0.00  0.00    +0.004 C 
ATOM     23  C   UNL     1     -11.987  13.923  69.727  0.00  0.00    +0.000 C 
ENDBRANCH   2  22
TORSDOF 2
ENDMDL
MODEL 3
REMARK VINA RESULT:      -6.2      2.418      4.188
REMARK  Name = 
REMARK  2 active torsions:
REMARK  status: ('A' for Active; 'I' for Inactive)
REMARK    1  A    between atoms: C_2  and  C_3
REMARK    2  A    between atoms: C_21  and  C_22
REMARK                            x       y       z     vdW  Elec       q    Type
REMARK                         _______ _______ _______ _____ _____    ______ ____
ROOT
ATOM      1  C   UNL     1     -10.319  16.439  68.609  0.00  0.00    +0.180 C 
ATOM      2  C   UNL     1     -10.860  15.117  68.212  0.00  0.00    +0.040 C 
ATOM      3  C   UNL     1      -9.502  14.707  67.376  0.00  0.00    +0.004 C 
ATOM      4  C   UNL     1      -9.923  13.052  67.408  0.00  0.00    +0.004 C 
ATOM      5  C   UNL     1     -10.510  13.216  65.826  0.00  0.00    +0.022 C 
ATOM      6  C   UNL     1     -11.895  13.831  66.337  0.00  0.00    -0.044 C 
ATOM      7  C   UNL     1     -12.736  13.874  65.290  0.00  0.00    -0.009 C 
ATOM      8  C   UNL     1     -11.139  11.618  65.853  0.00  0.00    +0.022 C 
ATOM      9  C   UNL     1      -9.671  10.971  65.620  0.00  0.00    -0.048 C 
ATOM     10  C   UNL     1      -9.615  10.033  64.689  0.00  0.00    -0.035 C 
ATOM     11  C   UNL     1      -9.685  10.546  63.273  0.00  0.00    +0.025 C 
ATOM     12  C   UNL     1     -10.255  11.952  63.493  0.00  0.00    +0.005 C 
ATOM     13  C   UNL     1      -8.728  11.094  66.760  0.00  0.00    +0.022 C 
ATOM     14  C   UNL     1     -11.515  11.684  64.251  0.00  0.00    +0.005 C 
ATOM     15  C   UNL     1      -8.455  12.592  66.905  0.00  0.00    +0.005 C 
ATOM     16  C   UNL     1      -8.675  14.655  68.792  0.00  0.00    +0.004 C 
ATOM     17  C   UNL     1     -11.863  15.069  67.140  0.00  0.00    +0.025 C 
ATOM     18  C   UNL     1      -8.871  16.158  69.007  0.00  0.00    +0.043 C 
ATOM     19  O   UNL     1     -10.904  17.030  69.709  0.00  0.00    -0.212 OA
ENDROOT
BRANCH   1  21
ATOM     20  C   UNL     1     -10.335  18.268  66.704  0.00  0.00    -0.012 C 
ATOM     21  C   UNL     1     -10.386  17.377  67.500  0.00  0.00    -0.049 C 
ENDBRANCH   1  21
BRANCH   2  22
ATOM     22  C   UNL     1     -10.993  14.169  69.335  0.00  0.00    +0.004 C 
ATOM     23  C   UNL     1     -12.359  14.100  69.968  0.00  0.00    +0.000 C 
ENDBRANCH   2  22
TORSDOF 2
ENDMDL
MODEL 4
REMARK VINA RESULT:      -6.1      3.234      7.493
REMARK  Name = 
REMARK  2 active torsions:
REMARK  status: ('A' for Active; 'I' for Inactive)
REMARK    1  A    between atoms: C_2  and  C_3
REMARK    2  A    between atoms: C_21  and  C_22
REMARK                            x       y       z     vdW  Elec       q    Type
REMARK                         _______ _______ _______ _____ _____    ______ ____
ROOT
ATOM      1  C   UNL     1     -10.754  15.220  67.978  0.00  0.00    +0.180 C 
ATOM      2  C   UNL     1     -10.170  16.314  67.166  0.00  0.00    +0.040 C 
ATOM      3  C   UNL     1      -8.715  16.233  67.932  0.00  0.00    +0.004 C 
ATOM      4  C   UNL     1      -7.944  17.074  66.661  0.00  0.00    +0.004 C 
ATOM      5  C   UNL     1      -8.043  18.486  67.595  0.00  0.00    +0.022 C 
ATOM      6  C   UNL     1      -9.563  18.737  67.167  0.00  0.00    -0.044 C 
ATOM      7  C   UNL     1      -9.907  19.969  67.578  0.00  0.00    -0.009 C 
ATOM      8  C   UNL     1      -7.454  19.435  66.290  0.00  0.00    +0.022 C 
ATOM      9  C   UNL     1      -5.929  18.949  66.544  0.00  0.00    -0.048 C 
ATOM     10  C   UNL     1      -5.028  19.918  66.552  0.00  0.00    -0.035 C 
ATOM     11  C   UNL     1      -5.032  20.771  67.795  0.00  0.00    +0.025 C 
ATOM     12  C   UNL     1      -6.412  20.444  68.377  0.00  0.00    +0.005 C 
ATOM     13  C   UNL     1      -5.646  17.529  66.219  0.00  0.00    +0.022 C 
ATOM     14  C   UNL     1      -7.334  20.769  67.248  0.00  0.00    +0.005 C 
ATOM     15  C   UNL     1      -6.467  16.711  67.216  0.00  0.00    +0.005 C 
ATOM     16  C   UNL     1      -8.475  14.752  67.267  0.00  0.00    +0.004 C 
ATOM     17  C   UNL     1     -10.563  17.695  67.474  0.00  0.00    +0.025 C 
ATOM     18  C   UNL     1      -9.651  14.166  68.053  0.00  0.00    +0.043 C 
ATOM     19  O   UNL     1     -11.850  14.580  67.437  0.00  0.00    -0.212 OA
ENDROOT
BRANCH   1  21
ATOM     20  C   UNL     1     -11.536  15.938  70.396  0.00  0.00    -0.012 C 
ATOM     21  C   UNL     1     -11.116  15.698  69.302  0.00  0.00    -0.049 C 
ENDBRANCH   1  21
BRANCH   2  22
ATOM     22  C   UNL     1      -9.949  15.951  65.753  0.00  0.00    +0.004 C 
ATOM     23  C   UNL     1     -11.073  16.294  64.810  0.00  0.00    +0.000 C 
ENDBRANCH   2  22
TORSDOF 2
ENDMDL
MODEL 5
REMARK VINA RESULT:      -5.6      2.724      6.151
REMARK  Name = 
REMARK  2 active torsions:
REMARK  status: ('A' for Active; 'I' for Inactive)
REMARK    1  A    between atoms: C_2  and  C_3
REMARK    2  A    between atoms: C_21  and  C_22
REMARK                            x       y       z     vdW  Elec       q    Type
REMARK                         _______ _______ _______ _____ _____    ______ ____
ROOT
ATOM      1  C   UNL     1      -9.729   7.783  69.097  0.00  0.00    +0.180 C 
ATOM      2  C   UNL     1      -9.393   9.059  68.421  0.00  0.00    +0.040 C 
ATOM      3  C   UNL     1     -10.909   9.669  68.613  0.00  0.00    +0.004 C 
ATOM      4  C   UNL     1     -10.356  11.261  68.339  0.00  0.00    +0.004 C 
ATOM      5  C   UNL     1     -10.912  11.133  66.742  0.00  0.00    +0.022 C 
ATOM      6  C   UNL     1      -9.602  10.337  66.285  0.00  0.00    -0.044 C 
ATOM      7  C   UNL     1      -9.613  10.266  64.943  0.00  0.00    -0.009 C 
ATOM      8  C   UNL     1     -10.208  12.646  66.336  0.00  0.00    +0.022 C 
ATOM      9  C   UNL     1     -11.404  13.466  67.061  0.00  0.00    -0.048 C 
ATOM     10  C   UNL     1     -11.909  14.462  66.351  0.00  0.00    -0.035 C 
ATOM     11  C   UNL     1     -12.805  14.034  65.216  0.00  0.00    +0.025 C 
ATOM     12  C   UNL     1     -12.405  12.563  65.059  0.00  0.00    +0.005 C 
ATOM     13  C   UNL     1     -11.434  13.378  68.542  0.00  0.00    +0.022 C 
ATOM     14  C   UNL     1     -10.927  12.640  64.854  0.00  0.00    +0.005 C 
ATOM     15  C   UNL     1     -11.744  11.914  68.858  0.00  0.00    +0.005 C 
ATOM     16  C   UNL     1     -10.656   9.724  70.233  0.00  0.00    +0.004 C 
ATOM     17  C   UNL     1      -9.283   9.062  66.956  0.00  0.00    +0.025 C 
ATOM     18  C   UNL     1     -10.560   8.198  70.309  0.00  0.00    +0.043 C 
ATOM     19  O   UNL     1      -8.666   7.063  69.599  0.00  0.00    -0.212 OA
ENDROOT
BRANCH   1  21
ATOM     20  C   UNL     1     -10.938   6.127  67.433  0.00  0.00    -0.012 C 
ATOM     21  C   UNL     1     -10.488   6.915  68.212  0.00  0.00    -0.049 C 
ENDBRANCH   1  21
BRANCH   2  22
ATOM     22  C   UNL     1      -8.469   9.913  69.191  0.00  0.00    +0.004 C 
ATOM     23  C   UNL     1      -7.023   9.848  68.774  0.00  0.00    +0.000 C 
ENDBRANCH   2  22
TORSDOF 2
ENDMDL
MODEL 6
REMARK VINA RESULT:      -5.6      1.714      3.872
REMARK  Name = 
REMARK  2 active torsions:
REMARK  status: ('A' for Active; 'I' for Inactive)
REMARK    1  A    between atoms: C_2  and  C_3
REMARK    2  A    between atoms: C_21  and  C_22
REMARK                            x       y       z     vdW  Elec       q    Type
REMARK                         _______ _______ _______ _____ _____    ______ ____
ROOT
ATOM      1  C   UNL     1     -10.592  12.991  66.034  0.00  0.00    +0.180 C 
ATOM      2  C   UNL     1     -10.394  12.541  67.432  0.00  0.00    +0.040 C 
ATOM      3  C   UNL     1     -11.105  11.082  67.164  0.00  0.00    +0.004 C 
ATOM      4  C   UNL     1     -10.393  10.420  68.567  0.00  0.00    +0.004 C 
ATOM      5  C   UNL     1     -11.860  10.673  69.378  0.00  0.00    +0.022 C 
ATOM      6  C   UNL     1     -11.524  12.215  69.636  0.00  0.00    -0.044 C 
ATOM      7  C   UNL     1     -12.434  12.695  70.501  0.00  0.00    -0.009 C 
ATOM      8  C   UNL     1     -11.158  10.206  70.874  0.00  0.00    +0.022 C 
ATOM      9  C   UNL     1     -11.234   8.633  70.489  0.00  0.00    -0.048 C 
ATOM     10  C   UNL     1     -11.723   7.849  71.436  0.00  0.00    -0.035 C 
ATOM     11  C   UNL     1     -13.216   7.942  71.621  0.00  0.00    +0.025 C 
ATOM     12  C   UNL     1     -13.521   9.271  70.921  0.00  0.00    +0.005 C 
ATOM     13  C   UNL     1     -10.312   8.193  69.413  0.00  0.00    +0.022 C 
ATOM     14  C   UNL     1     -12.622  10.233  71.628  0.00  0.00    +0.005 C 
ATOM     15  C   UNL     1     -10.789   8.908  68.148  0.00  0.00    +0.005 C 
ATOM     16  C   UNL     1      -9.853  10.678  66.184  0.00  0.00    +0.004 C 
ATOM     17  C   UNL     1     -11.277  13.087  68.470  0.00  0.00    +0.025 C 
ATOM     18  C   UNL     1     -10.230  11.774  65.184  0.00  0.00    +0.043 C 
ATOM     19  O   UNL     1      -9.769  14.009  65.600  0.00  0.00    -0.212 OA
ENDROOT
BRANCH   1  21
ATOM     20  C   UNL     1     -13.055  13.891  65.728  0.00  0.00    -0.012 C 
ATOM     21  C   UNL     1     -11.971  13.395  65.813  0.00  0.00    -0.049 C 
ENDBRANCH   1  21
BRANCH   2  22
ATOM     22  C   UNL     1      -8.982  12.289  67.780  0.00  0.00    +0.004 C 
ATOM     23  C   UNL     1      -8.250  13.449  68.404  0.00  0.00    +0.000 C 
ENDBRANCH   2  22
TORSDOF 2
ENDMDL
MODEL 7
REMARK VINA RESULT:      -5.5      2.212      6.363
REMARK  Name = 
REMARK  2 active torsions:
REMARK  status: ('A' for Active; 'I' for Inactive)
REMARK    1  A    between atoms: C_2  and  C_3
REMARK    2  A    between atoms: C_21  and  C_22
REMARK                            x       y       z     vdW  Elec       q    Type
REMARK                         _______ _______ _______ _____ _____    ______ ____
ROOT
ATOM      1  C   UNL     1     -11.197  13.202  67.998  0.00  0.00    +0.180 C 
ATOM      2  C   UNL     1     -10.533  14.279  67.225  0.00  0.00    +0.040 C 
ATOM      3  C   UNL     1      -9.317  14.445  68.320  0.00  0.00    +0.004 C 
ATOM      4  C   UNL     1      -8.335  15.252  67.181  0.00  0.00    +0.004 C 
ATOM      5  C   UNL     1      -8.797  16.722  67.888  0.00  0.00    +0.022 C 
ATOM      6  C   UNL     1     -10.178  16.747  67.082  0.00  0.00    -0.044 C 
ATOM      7  C   UNL     1     -10.728  17.961  67.249  0.00  0.00    -0.009 C 
ATOM      8  C   UNL     1      -7.992  17.611  66.658  0.00  0.00    +0.022 C 
ATOM      9  C   UNL     1      -6.541  17.338  67.327  0.00  0.00    -0.048 C 
ATOM     10  C   UNL     1      -5.766  18.406  67.434  0.00  0.00    -0.035 C 
ATOM     11  C   UNL     1      -6.162  19.363  68.530  0.00  0.00    +0.025 C 
ATOM     12  C   UNL     1      -7.607  18.926  68.799  0.00  0.00    +0.005 C 
ATOM     13  C   UNL     1      -6.053  15.939  67.250  0.00  0.00    +0.022 C 
ATOM     14  C   UNL     1      -8.243  19.032  67.452  0.00  0.00    +0.005 C 
ATOM     15  C   UNL     1      -7.017  15.123  68.112  0.00  0.00    +0.005 C 
ATOM     16  C   UNL     1      -8.779  12.949  67.914  0.00  0.00    +0.004 C 
ATOM     17  C   UNL     1     -11.120  15.625  67.263  0.00  0.00    +0.025 C 
ATOM     18  C   UNL     1     -10.054  12.300  68.459  0.00  0.00    +0.043 C 
ATOM     19  O   UNL     1     -12.056  12.387  67.291  0.00  0.00    -0.212 OA
ENDROOT
BRANCH   1  21
ATOM     20  C   UNL     1     -12.435  14.062  70.166  0.00  0.00    -0.012 C 
ATOM     21  C   UNL     1     -11.923  13.752  69.130  0.00  0.00    -0.049 C 
ENDBRANCH   1  21
BRANCH   2  22
ATOM     22  C   UNL     1      -9.932  13.816  65.959  0.00  0.00    +0.004 C 
ATOM     23  C   UNL     1     -10.772  14.022  64.726  0.00  0.00    +0.000 C 
ENDBRANCH   2  22
TORSDOF 2
ENDMDL
MODEL 8
REMARK VINA RESULT:      -5.5      4.679      7.766
REMARK  Name = 
REMARK  2 active torsions:
REMARK  status: ('A' for Active; 'I' for Inactive)
REMARK    1  A    between atoms: C_2  and  C_3
REMARK    2  A    between atoms: C_21  and  C_22
REMARK                            x       y       z     vdW  Elec       q    Type
REMARK                         _______ _______ _______ _____ _____    ______ ____
ROOT
ATOM      1  C   UNL     1     -11.643   6.592  72.002  0.00  0.00    +0.180 C 
ATOM      2  C   UNL     1     -10.719   6.544  70.844  0.00  0.00    +0.040 C 
ATOM      3  C   UNL     1     -10.602   8.183  70.749  0.00  0.00    +0.004 C 
ATOM      4  C   UNL     1      -9.174   8.077  69.819  0.00  0.00    +0.004 C 
ATOM      5  C   UNL     1     -10.111   8.341  68.430  0.00  0.00    +0.022 C 
ATOM      6  C   UNL     1     -10.561   6.808  68.366  0.00  0.00    -0.044 C 
ATOM      7  C   UNL     1     -11.170   6.609  67.185  0.00  0.00    -0.009 C 
ATOM      8  C   UNL     1      -8.756   8.051  67.415  0.00  0.00    +0.022 C 
ATOM      9  C   UNL     1      -8.142   9.521  67.712  0.00  0.00    -0.048 C 
ATOM     10  C   UNL     1      -7.740  10.185  66.640  0.00  0.00    -0.035 C 
ATOM     11  C   UNL     1      -8.853  10.751  65.796  0.00  0.00    +0.025 C 
ATOM     12  C   UNL     1     -10.049   9.929  66.290  0.00  0.00    +0.005 C 
ATOM     13  C   UNL     1      -7.624   9.734  69.086  0.00  0.00    +0.022 C 
ATOM     14  C   UNL     1      -9.595   8.521  66.077  0.00  0.00    +0.005 C 
ATOM     15  C   UNL     1      -8.848   9.652  70.000  0.00  0.00    +0.005 C 
ATOM     16  C   UNL     1      -9.815   8.187  72.188  0.00  0.00    +0.004 C 
ATOM     17  C   UNL     1     -11.277   6.234  69.522  0.00  0.00    +0.025 C 
ATOM     18  C   UNL     1     -11.060   7.670  72.915  0.00  0.00    +0.043 C 
ATOM     19  O   UNL     1     -11.716   5.449  72.770  0.00  0.00    -0.212 OA
ENDROOT
BRANCH   1  21
ATOM     20  C   UNL     1     -14.107   7.321  71.391  0.00  0.00    -0.012 C 
ATOM     21  C   UNL     1     -12.988   6.938  71.574  0.00  0.00    -0.049 C 
ENDBRANCH   1  21
BRANCH   2  22
ATOM     22  C   UNL     1      -9.379   6.022  71.176  0.00  0.00    +0.004 C 
ATOM     23  C   UNL     1      -9.139   4.577  70.825  0.00  0.00    +0.000 C 
ENDBRANCH   2  22
TORSDOF 2
ENDMDL
MODEL 9
REMARK VINA RESULT:      -5.5      2.569      4.368
REMARK  Name = 
REMARK  2 active torsions:
REMARK  status: ('A' for Active; 'I' for Inactive)
REMARK    1  A    between atoms: C_2  and  C_3
REMARK    2  A    between atoms: C_21  and  C_22
REMARK                            x       y       z     vdW  Elec       q    Type
REMARK                         _______ _______ _______ _____ _____    ______ ____
ROOT
ATOM      1  C   UNL     1      -7.829  17.321  67.891  0.00  0.00    +0.180 C 
ATOM      2  C   UNL     1      -8.999  16.431  67.704  0.00  0.00    +0.040 C 
ATOM      3  C   UNL     1      -8.078  15.176  67.170  0.00  0.00    +0.004 C 
ATOM      4  C   UNL     1      -9.331  14.059  67.485  0.00  0.00    +0.004 C 
ATOM      5  C   UNL     1      -9.726  14.105  65.836  0.00  0.00    +0.022 C 
ATOM      6  C   UNL     1     -10.558  15.460  66.010  0.00  0.00    -0.044 C 
ATOM      7  C   UNL     1     -11.235  15.675  64.870  0.00  0.00    -0.009 C 
ATOM      8  C   UNL     1     -11.123  13.142  66.106  0.00  0.00    +0.022 C 
ATOM      9  C   UNL     1     -10.241  11.786  66.219  0.00  0.00    -0.048 C 
ATOM     10  C   UNL     1     -10.700  10.761  65.520  0.00  0.00    -0.035 C 
ATOM     11  C   UNL     1     -10.472  10.861  64.033  0.00  0.00    +0.025 C 
ATOM     12  C   UNL     1     -10.187  12.360  63.875  0.00  0.00    +0.005 C 
ATOM     13  C   UNL     1      -9.389  11.676  67.429  0.00  0.00    +0.022 C 
ATOM     14  C   UNL     1     -11.394  12.993  64.488  0.00  0.00    +0.005 C 
ATOM     15  C   UNL     1      -8.347  12.787  67.298  0.00  0.00    +0.005 C 
ATOM     16  C   UNL     1      -7.420  15.052  68.668  0.00  0.00    +0.004 C 
ATOM     17  C   UNL     1      -9.861  16.651  66.536  0.00  0.00    +0.025 C 
ATOM     18  C   UNL     1      -6.769  16.432  68.538  0.00  0.00    +0.043 C 
ATOM     19  O   UNL     1      -8.004  18.384  68.752  0.00  0.00    -0.212 OA
ENDROOT
BRANCH   1  21
ATOM     20  C   UNL     1      -6.837  18.339  65.665  0.00  0.00    -0.012 C 
ATOM     21  C   UNL     1      -7.369  17.843  66.614  0.00  0.00    -0.049 C 
ENDBRANCH   1  21
BRANCH   2  22
ATOM     22  C   UNL     1      -9.632  16.011  68.969  0.00  0.00    +0.004 C 
ATOM     23  C   UNL     1     -10.937  16.688  69.299  0.00  0.00    +0.000 C 
ENDBRANCH   2  22
TORSDOF 2
ENDMDL
