MODEL 1
REMARK VINA RESULT:      -7.3      0.000      0.000
REMARK  Name = 
REMARK  12 active torsions:
REMARK  status: ('A' for Active; 'I' for Inactive)
REMARK    1  A    between atoms: C_2  and  C_3
REMARK    2  A    between atoms: C_3  and  C_4
REMARK    3  A    between atoms: C_3  and  N_7
REMARK    4  A    between atoms: N_10  and  C_11
REMARK    5  A    between atoms: C_14  and  N_15
REMARK    6  A    between atoms: N_18  and  C_19
REMARK    7  A    between atoms: C_22  and  O_23
REMARK    8  A    between atoms: O_23  and  C_24
REMARK    9  A    between atoms: C_24  and  C_25
REMARK   10  A    between atoms: C_28  and  C_29
REMARK   11  A    between atoms: C_28  and  C_35
REMARK   12  A    between atoms: C_29  and  N_30
REMARK                            x       y       z     vdW  Elec       q    Type
REMARK                         _______ _______ _______ _____ _____    ______ ____
ROOT
ATOM      1  C   UNL     1      -9.921  15.712  67.767  0.00  0.00    +0.048 A 
ATOM      2  C   UNL     1     -10.576  16.902  68.017  0.00  0.00    +0.018 A 
ATOM      3  C   UNL     1     -10.263  18.090  67.386  0.00  0.00    +0.038 A 
ATOM      4  C   UNL     1      -9.148  18.093  66.572  0.00  0.00    +0.139 A 
ATOM      5  C   UNL     1      -8.578  16.906  66.141  0.00  0.00    +0.038 A 
ATOM      6  C   UNL     1      -9.089  15.725  66.653  0.00  0.00    +0.018 A 
ENDROOT
BRANCH   1  10
ATOM      7  N   UNL     1     -11.690  12.866  68.231  0.00  0.00    -0.304 N 
ATOM      8  C   UNL     1     -10.616  13.136  67.264  0.00  0.00    +0.112 C 
ATOM      9  C   UNL     1      -9.444  13.393  68.218  0.00  0.00    +0.112 C 
ATOM     10  N   UNL     1      -9.797  14.702  68.781  0.00  0.00    -0.304 N 
ATOM     11  C   UNL     1     -10.910  14.617  69.727  0.00  0.00    +0.112 C 
ATOM     12  C   UNL     1     -12.093  14.099  68.915  0.00  0.00    +0.112 C 
BRANCH   7  16
ATOM     13  C   UNL     1     -11.420   9.312  70.504  0.00  0.00    +0.070 A 
ATOM     14  C   UNL     1     -10.663   9.486  69.368  0.00  0.00    +0.019 A 
ATOM     15  C   UNL     1     -10.663  10.665  68.659  0.00  0.00    +0.016 A 
ATOM     16  C   UNL     1     -11.409  11.753  69.095  0.00  0.00    +0.048 A 
ATOM     17  C   UNL     1     -12.063  11.576  70.308  0.00  0.00    +0.016 A 
ATOM     18  C   UNL     1     -12.262  10.321  70.871  0.00  0.00    +0.019 A 
BRANCH  13  22
ATOM     19  N   UNL     1     -10.667   6.265  72.081  0.00  0.00    -0.200 N 
ATOM     20  C   UNL     1     -11.143   6.971  71.048  0.00  0.00    +0.352 A 
ATOM     21  O   UNL     1     -12.060   6.556  70.311  0.00  0.00    -0.244 OA
ATOM     22  N   UNL     1     -11.084   8.272  71.430  0.00  0.00    -0.240 N 
ATOM     23  C   UNL     1     -10.153   8.322  72.398  0.00  0.00    +0.207 A 
ATOM     24  N   UNL     1      -9.719   7.053  72.597  0.00  0.00    -0.144 NA
BRANCH  19  25
ATOM     25  C   UNL     1     -10.195   4.773  71.861  0.00  0.00    +0.140 C 
BRANCH  25  26
ATOM     26  C   UNL     1     -10.557   4.337  73.517  0.00  0.00    +0.174 C 
ATOM     27  O   UNL     1     -12.067   4.416  73.251  0.00  0.00    -0.221 OA
ATOM     28  C   UNL     1     -10.546   2.712  73.146  0.00  0.00    +0.038 C 
ENDBRANCH  25  26
BRANCH  25  30
ATOM     29  C   UNL     1      -7.990   4.847  71.617  0.00  0.00    +0.002 C 
ATOM     30  C   UNL     1      -8.639   5.162  72.248  0.00  0.00    +0.027 C 
ENDBRANCH  25  30
ENDBRANCH  19  25
ENDBRANCH  13  22
ENDBRANCH   7  16
ENDBRANCH   1  10
BRANCH   4  31
ATOM     31  O   UNL     1      -8.920  19.197  65.750  0.00  0.00    -0.475 OA
BRANCH  31  32
ATOM     32  C   UNL     1      -7.589  19.704  65.657  0.00  0.00    +0.208 C 
BRANCH  32  33
ATOM     33  C   UNL     1      -7.199  19.675  67.268  0.00  0.00    +0.076 C 
ATOM     34  C   UNL     1      -5.634  19.244  66.942  0.00  0.00    +0.040 C 
ATOM     35  C   UNL     1      -4.977  20.134  67.949  0.00  0.00    +0.136 C 
ATOM     36  O   UNL     1      -5.860  21.129  68.304  0.00  0.00    -0.352 OA
ATOM     37  C   UNL     1      -6.774  21.275  67.251  0.00  0.00    +0.146 C 
BRANCH  35  38
ATOM     38  C   UNL     1      -4.551  19.285  69.103  0.00  0.00    +0.032 A 
ATOM     39  C   UNL     1      -5.091  19.548  70.358  0.00  0.00    +0.141 A 
ATOM     40  F   UNL     1      -5.062  20.862  70.723  0.00  0.00    -0.204 F 
ATOM     41  C   UNL     1      -5.312  18.537  71.271  0.00  0.00    +0.059 A 
ATOM     42  C   UNL     1      -4.939  17.243  70.933  0.00  0.00    +0.142 A 
ATOM     43  F   UNL     1      -5.310  16.237  71.748  0.00  0.00    -0.204 F 
ATOM     44  C   UNL     1      -4.173  17.043  69.790  0.00  0.00    +0.030 A 
ATOM     45  C   UNL     1      -4.002  18.048  68.846  0.00  0.00    +0.003 A 
ENDBRANCH  35  38
BRANCH  35  46
ATOM     46  C   UNL     1      -3.725  20.815  67.452  0.00  0.00    +0.160 C 
BRANCH  46  47
ATOM     47  N   UNL     1      -3.488  20.550  66.035  0.00  0.00    -0.227 N 
ATOM     48  N   UNL     1      -2.579  19.670  65.615  0.00  0.00    -0.145 NA
ATOM     49  C   UNL     1      -1.938  20.135  64.535  0.00  0.00    +0.221 A 
ATOM     50  N   UNL     1      -2.496  21.302  64.194  0.00  0.00    -0.201 NA
ATOM     51  C   UNL     1      -3.380  21.584  65.167  0.00  0.00    +0.197 A 
ENDBRANCH  46  47
ENDBRANCH  35  46
ENDBRANCH  32  33
ENDBRANCH  31  32
ENDBRANCH   4  31
TORSDOF 12
ENDMDL
MODEL 2
REMARK VINA RESULT:      -7.2      3.524     13.858
REMARK  Name = 
REMARK  12 active torsions:
REMARK  status: ('A' for Active; 'I' for Inactive)
REMARK    1  A    between atoms: C_2  and  C_3
REMARK    2  A    between atoms: C_3  and  C_4
REMARK    3  A    between atoms: C_3  and  N_7
REMARK    4  A    between atoms: N_10  and  C_11
REMARK    5  A    between atoms: C_14  and  N_15
REMARK    6  A    between atoms: N_18  and  C_19
REMARK    7  A    between atoms: C_22  and  O_23
REMARK    8  A    between atoms: O_23  and  C_24
REMARK    9  A    between atoms: C_24  and  C_25
REMARK   10  A    between atoms: C_28  and  C_29
REMARK   11  A    between atoms: C_28  and  C_35
REMARK   12  A    between atoms: C_29  and  N_30
REMARK                            x       y       z     vdW  Elec       q    Type
REMARK                         _______ _______ _______ _____ _____    ______ ____
ROOT
ATOM      1  C   UNL     1     -10.502   9.617  67.888  0.00  0.00    +0.048 A 
ATOM      2  C   UNL     1     -10.458   8.613  66.942  0.00  0.00    +0.018 A 
ATOM      3  C   UNL     1     -10.552   7.270  67.252  0.00  0.00    +0.038 A 
ATOM      4  C   UNL     1     -10.547   6.934  68.591  0.00  0.00    +0.139 A 
ATOM      5  C   UNL     1     -10.782   7.890  69.566  0.00  0.00    +0.038 A 
ATOM      6  C   UNL     1     -10.898   9.208  69.157  0.00  0.00    +0.018 A 
ENDROOT
BRANCH   1  10
ATOM      7  N   UNL     1     -11.722  12.647  67.008  0.00  0.00    -0.304 N 
ATOM      8  C   UNL     1     -11.759  11.985  68.321  0.00  0.00    +0.112 C 
ATOM      9  C   UNL     1     -10.260  11.898  68.628  0.00  0.00    +0.112 C 
ATOM     10  N   UNL     1      -9.819  10.864  67.684  0.00  0.00    -0.304 N 
ATOM     11  C   UNL     1      -9.790  11.350  66.303  0.00  0.00    +0.112 C 
ATOM     12  C   UNL     1     -11.232  11.727  65.977  0.00  0.00    +0.112 C 
BRANCH   7  16
ATOM     13  C   UNL     1     -10.364  16.643  66.759  0.00  0.00    +0.070 A 
ATOM     14  C   UNL     1     -10.966  16.169  67.902  0.00  0.00    +0.019 A 
ATOM     15  C   UNL     1     -11.336  14.852  68.045  0.00  0.00    +0.016 A 
ATOM     16  C   UNL     1     -11.076  13.930  67.039  0.00  0.00    +0.048 A 
ATOM     17  C   UNL     1     -10.361  14.423  65.954  0.00  0.00    +0.016 A 
ATOM     18  C   UNL     1     -10.223  15.784  65.709  0.00  0.00    +0.019 A 
BRANCH  13  22
ATOM     19  N   UNL     1      -7.873  19.118  66.850  0.00  0.00    -0.200 N 
ATOM     20  C   UNL     1      -8.277  17.847  66.969  0.00  0.00    +0.352 A 
ATOM     21  O   UNL     1      -7.737  17.037  67.749  0.00  0.00    -0.244 OA
ATOM     22  N   UNL     1      -9.623  17.868  66.801  0.00  0.00    -0.240 N 
ATOM     23  C   UNL     1      -9.883  18.994  66.114  0.00  0.00    +0.207 A 
ATOM     24  N   UNL     1      -8.700  19.631  65.933  0.00  0.00    -0.144 NA
BRANCH  19  25
ATOM     25  C   UNL     1      -6.351  19.436  66.572  0.00  0.00    +0.140 C 
BRANCH  25  26
ATOM     26  C   UNL     1      -6.447  20.978  67.394  0.00  0.00    +0.174 C 
ATOM     27  O   UNL     1      -6.471  20.292  68.767  0.00  0.00    -0.221 OA
ATOM     28  C   UNL     1      -4.786  21.108  67.454  0.00  0.00    +0.038 C 
ENDBRANCH  25  26
BRANCH  25  30
ATOM     29  C   UNL     1      -6.142  19.852  64.401  0.00  0.00    +0.002 C 
ATOM     30  C   UNL     1      -6.715  20.128  65.118  0.00  0.00    +0.027 C 
ENDBRANCH  25  30
ENDBRANCH  19  25
ENDBRANCH  13  22
ENDBRANCH   7  16
ENDBRANCH   1  10
BRANCH   4  31
ATOM     31  O   UNL     1     -10.856   5.623  68.956  0.00  0.00    -0.475 OA
BRANCH  31  32
ATOM     32  C   UNL     1      -9.826   4.639  68.868  0.00  0.00    +0.208 C 
BRANCH  32  33
ATOM     33  C   UNL     1      -8.847   5.194  70.086  0.00  0.00    +0.076 C 
ATOM     34  C   UNL     1      -9.810   4.517  71.250  0.00  0.00    +0.040 C 
ATOM     35  C   UNL     1      -8.715   3.999  72.127  0.00  0.00    +0.136 C 
ATOM     36  O   UNL     1      -7.554   3.927  71.389  0.00  0.00    -0.352 OA
ATOM     37  C   UNL     1      -7.919   3.824  70.039  0.00  0.00    +0.146 C 
BRANCH  35  38
ATOM     38  C   UNL     1      -8.606   4.906  73.309  0.00  0.00    +0.032 A 
ATOM     39  C   UNL     1      -7.340   5.304  73.728  0.00  0.00    +0.141 A 
ATOM     40  F   UNL     1      -6.438   4.289  73.848  0.00  0.00    -0.204 F 
ATOM     41  C   UNL     1      -7.128   6.546  74.293  0.00  0.00    +0.059 A 
ATOM     42  C   UNL     1      -8.219   7.384  74.484  0.00  0.00    +0.142 A 
ATOM     43  F   UNL     1      -7.989   8.653  74.873  0.00  0.00    -0.204 F 
ATOM     44  C   UNL     1      -9.498   6.873  74.298  0.00  0.00    +0.030 A 
ATOM     45  C   UNL     1      -9.707   5.648  73.676  0.00  0.00    +0.003 A 
ENDBRANCH  35  38
BRANCH  35  46
ATOM     46  C   UNL     1      -8.967   2.619  72.685  0.00  0.00    +0.160 C 
BRANCH  46  47
ATOM     47  N   UNL     1     -10.354   2.202  72.497  0.00  0.00    -0.227 N 
ATOM     48  N   UNL     1     -11.272   2.325  73.455  0.00  0.00    -0.145 NA
ATOM     49  C   UNL     1     -12.078   1.254  73.475  0.00  0.00    +0.221 A 
ATOM     50  N   UNL     1     -11.730   0.458  72.458  0.00  0.00    -0.201 NA
ATOM     51  C   UNL     1     -10.623   1.004  71.925  0.00  0.00    +0.197 A 
ENDBRANCH  46  47
ENDBRANCH  35  46
ENDBRANCH  32  33
ENDBRANCH  31  32
ENDBRANCH   4  31
TORSDOF 12
ENDMDL
MODEL 3
REMARK VINA RESULT:      -7.1      3.405     12.974
REMARK  Name = 
REMARK  12 active torsions:
REMARK  status: ('A' for Active; 'I' for Inactive)
REMARK    1  A    between atoms: C_2  and  C_3
REMARK    2  A    between atoms: C_3  and  C_4
REMARK    3  A    between atoms: C_3  and  N_7
REMARK    4  A    between atoms: N_10  and  C_11
REMARK    5  A    between atoms: C_14  and  N_15
REMARK    6  A    between atoms: N_18  and  C_19
REMARK    7  A    between atoms: C_22  and  O_23
REMARK    8  A    between atoms: O_23  and  C_24
REMARK    9  A    between atoms: C_24  and  C_25
REMARK   10  A    between atoms: C_28  and  C_29
REMARK   11  A    between atoms: C_28  and  C_35
REMARK   12  A    between atoms: C_29  and  N_30
REMARK                            x       y       z     vdW  Elec       q    Type
REMARK                         _______ _______ _______ _____ _____    ______ ____
ROOT
ATOM      1  C   UNL     1      -9.668   8.939  66.208  0.00  0.00    +0.048 A 
ATOM      2  C   UNL     1      -8.928   7.886  65.707  0.00  0.00    +0.018 A 
ATOM      3  C   UNL     1      -9.060   6.584  66.150  0.00  0.00    +0.038 A 
ATOM      4  C   UNL     1      -9.878   6.373  67.243  0.00  0.00    +0.139 A 
ATOM      5  C   UNL     1     -10.776   7.343  67.657  0.00  0.00    +0.038 A 
ATOM      6  C   UNL     1     -10.739   8.569  67.015  0.00  0.00    +0.018 A 
ENDROOT
BRANCH   1  10
ATOM      7  N   UNL     1     -11.268  11.906  65.935  0.00  0.00    -0.304 N 
ATOM      8  C   UNL     1     -11.172  11.015  67.101  0.00  0.00    +0.112 C 
ATOM      9  C   UNL     1      -9.662  11.058  67.357  0.00  0.00    +0.112 C 
ATOM     10  N   UNL     1      -9.144  10.276  66.227  0.00  0.00    -0.304 N 
ATOM     11  C   UNL     1      -9.231  11.006  64.961  0.00  0.00    +0.112 C 
ATOM     12  C   UNL     1     -10.719  11.258  64.740  0.00  0.00    +0.112 C 
BRANCH   7  16
ATOM     13  C   UNL     1     -10.397  16.015  66.411  0.00  0.00    +0.070 A 
ATOM     14  C   UNL     1     -10.889  15.270  67.458  0.00  0.00    +0.019 A 
ATOM     15  C   UNL     1     -11.098  13.914  67.359  0.00  0.00    +0.016 A 
ATOM     16  C   UNL     1     -10.775  13.231  66.192  0.00  0.00    +0.048 A 
ATOM     17  C   UNL     1     -10.170  13.998  65.205  0.00  0.00    +0.016 A 
ATOM     18  C   UNL     1     -10.202  15.388  65.216  0.00  0.00    +0.019 A 
BRANCH  13  22
ATOM     19  N   UNL     1      -8.211  18.698  67.014  0.00  0.00    -0.200 N 
ATOM     20  C   UNL     1      -8.477  17.388  66.940  0.00  0.00    +0.352 A 
ATOM     21  O   UNL     1      -7.902  16.540  67.653  0.00  0.00    -0.244 OA
ATOM     22  N   UNL     1      -9.802  17.293  66.667  0.00  0.00    -0.240 N 
ATOM     23  C   UNL     1     -10.140  18.468  66.109  0.00  0.00    +0.207 A 
ATOM     24  N   UNL     1      -9.027  19.242  66.106  0.00  0.00    -0.144 NA
BRANCH  19  25
ATOM     25  C   UNL     1      -6.718  19.204  66.903  0.00  0.00    +0.140 C 
BRANCH  25  26
ATOM     26  C   UNL     1      -7.031  20.583  67.935  0.00  0.00    +0.174 C 
ATOM     27  O   UNL     1      -7.121  19.686  69.177  0.00  0.00    -0.221 OA
ATOM     28  C   UNL     1      -5.403  20.827  68.192  0.00  0.00    +0.038 C 
ENDBRANCH  25  26
BRANCH  25  30
ATOM     29  C   UNL     1      -6.433  19.961  64.836  0.00  0.00    +0.002 C 
ATOM     30  C   UNL     1      -7.068  20.074  65.545  0.00  0.00    +0.027 C 
ENDBRANCH  25  30
ENDBRANCH  19  25
ENDBRANCH  13  22
ENDBRANCH   7  16
ENDBRANCH   1  10
BRANCH   4  31
ATOM     31  O   UNL     1     -10.212   5.063  67.589  0.00  0.00    -0.475 OA
BRANCH  31  32
ATOM     32  C   UNL     1      -9.684   4.532  68.803  0.00  0.00    +0.208 C 
BRANCH  32  33
ATOM     33  C   UNL     1      -9.465   5.956  69.624  0.00  0.00    +0.076 C 
ATOM     34  C   UNL     1     -10.945   5.831  70.356  0.00  0.00    +0.040 C 
ATOM     35  C   UNL     1     -10.522   6.282  71.718  0.00  0.00    +0.136 C 
ATOM     36  O   UNL     1      -9.156   6.149  71.825  0.00  0.00    -0.352 OA
ATOM     37  C   UNL     1      -8.754   5.176  70.900  0.00  0.00    +0.146 C 
BRANCH  35  38
ATOM     38  C   UNL     1     -10.994   7.688  71.902  0.00  0.00    +0.032 A 
ATOM     39  C   UNL     1     -10.282   8.714  71.289  0.00  0.00    +0.141 A 
ATOM     40  F   UNL     1      -8.932   8.657  71.477  0.00  0.00    -0.204 F 
ATOM     41  C   UNL     1     -10.913   9.855  70.835  0.00  0.00    +0.059 A 
ATOM     42  C   UNL     1     -12.279   9.986  71.045  0.00  0.00    +0.142 A 
ATOM     43  F   UNL     1     -12.921  11.013  70.453  0.00  0.00    -0.204 F 
ATOM     44  C   UNL     1     -12.920   9.077  71.878  0.00  0.00    +0.030 A 
ATOM     45  C   UNL     1     -12.299   7.902  72.284  0.00  0.00    +0.003 A 
ENDBRANCH  35  38
BRANCH  35  46
ATOM     46  C   UNL     1     -11.131   5.490  72.850  0.00  0.00    +0.160 C 
BRANCH  46  47
ATOM     47  N   UNL     1     -10.181   5.283  73.940  0.00  0.00    -0.227 N 
ATOM     48  N   UNL     1     -10.006   4.094  74.517  0.00  0.00    -0.145 NA
ATOM     49  C   UNL     1      -9.854   4.231  75.841  0.00  0.00    +0.221 A 
ATOM     50  N   UNL     1      -9.845   5.539  76.122  0.00  0.00    -0.201 NA
ATOM     51  C   UNL     1     -10.134   6.165  74.967  0.00  0.00    +0.197 A 
ENDBRANCH  46  47
ENDBRANCH  35  46
ENDBRANCH  32  33
ENDBRANCH  31  32
ENDBRANCH   4  31
TORSDOF 12
ENDMDL
MODEL 4
REMARK VINA RESULT:      -7.1      2.044      2.694
REMARK  Name = 
REMARK  12 active torsions:
REMARK  status: ('A' for Active; 'I' for Inactive)
REMARK    1  A    between atoms: C_2  and  C_3
REMARK    2  A    between atoms: C_3  and  C_4
REMARK    3  A    between atoms: C_3  and  N_7
REMARK    4  A    between atoms: N_10  and  C_11
REMARK    5  A    between atoms: C_14  and  N_15
REMARK    6  A    between atoms: N_18  and  C_19
REMARK    7  A    between atoms: C_22  and  O_23
REMARK    8  A    between atoms: O_23  and  C_24
REMARK    9  A    between atoms: C_24  and  C_25
REMARK   10  A    between atoms: C_28  and  C_29
REMARK   11  A    between atoms: C_28  and  C_35
REMARK   12  A    between atoms: C_29  and  N_30
REMARK                            x       y       z     vdW  Elec       q    Type
REMARK                         _______ _______ _______ _____ _____    ______ ____
ROOT
ATOM      1  C   UNL     1     -11.810  14.175  66.595  0.00  0.00    +0.048 A 
ATOM      2  C   UNL     1     -11.612  15.161  67.542  0.00  0.00    +0.018 A 
ATOM      3  C   UNL     1     -10.839  16.283  67.322  0.00  0.00    +0.038 A 
ATOM      4  C   UNL     1     -10.126  16.333  66.141  0.00  0.00    +0.139 A 
ATOM      5  C   UNL     1     -10.429  15.482  65.091  0.00  0.00    +0.038 A 
ATOM      6  C   UNL     1     -11.385  14.504  65.312  0.00  0.00    +0.018 A 
ENDROOT
BRANCH   1  10
ATOM      7  N   UNL     1      -9.632  11.764  67.535  0.00  0.00    -0.304 N 
ATOM      8  C   UNL     1     -10.150  12.895  68.320  0.00  0.00    +0.112 C 
ATOM      9  C   UNL     1     -11.641  12.543  68.360  0.00  0.00    +0.112 C 
ATOM     10  N   UNL     1     -12.050  12.812  66.976  0.00  0.00    -0.304 N 
ATOM     11  C   UNL     1     -11.552  11.799  66.044  0.00  0.00    +0.112 C 
ATOM     12  C   UNL     1     -10.031  11.883  66.130  0.00  0.00    +0.112 C 
BRANCH   7  16
ATOM     13  C   UNL     1      -9.745   7.893  69.231  0.00  0.00    +0.070 A 
ATOM     14  C   UNL     1      -9.702   9.015  70.027  0.00  0.00    +0.019 A 
ATOM     15  C   UNL     1      -9.755  10.287  69.507  0.00  0.00    +0.016 A 
ATOM     16  C   UNL     1      -9.896  10.488  68.140  0.00  0.00    +0.048 A 
ATOM     17  C   UNL     1     -10.057   9.333  67.384  0.00  0.00    +0.016 A 
ATOM     18  C   UNL     1      -9.747   8.071  67.878  0.00  0.00    +0.019 A 
BRANCH  13  22
ATOM     19  N   UNL     1      -9.895   4.877  71.025  0.00  0.00    -0.200 N 
ATOM     20  C   UNL     1      -9.225   5.935  70.552  0.00  0.00    +0.352 A 
ATOM     21  O   UNL     1      -8.017   5.888  70.245  0.00  0.00    -0.244 OA
ATOM     22  N   UNL     1     -10.114   6.631  69.799  0.00  0.00    -0.240 N 
ATOM     23  C   UNL     1     -11.328   6.271  70.249  0.00  0.00    +0.207 A 
ATOM     24  N   UNL     1     -11.133   5.344  71.219  0.00  0.00    -0.144 NA
BRANCH  19  25
ATOM     25  C   UNL     1      -9.324   4.074  72.260  0.00  0.00    +0.140 C 
BRANCH  25  26
ATOM     26  C   UNL     1      -9.830   2.538  71.588  0.00  0.00    +0.174 C 
ATOM     27  O   UNL     1      -8.723   2.590  70.527  0.00  0.00    -0.221 OA
ATOM     28  C   UNL     1      -8.836   1.697  72.628  0.00  0.00    +0.038 C 
ENDBRANCH  25  26
BRANCH  25  30
ATOM     29  C   UNL     1     -10.635   4.428  74.016  0.00  0.00    +0.002 C 
ATOM     30  C   UNL     1     -10.745   4.242  73.082  0.00  0.00    +0.027 C 
ENDBRANCH  25  30
ENDBRANCH  19  25
ENDBRANCH  13  22
ENDBRANCH   7  16
ENDBRANCH   1  10
BRANCH   4  31
ATOM     31  O   UNL     1      -9.509  17.531  65.778  0.00  0.00    -0.475 OA
BRANCH  31  32
ATOM     32  C   UNL     1     -10.109  18.753  66.205  0.00  0.00    +0.208 C 
BRANCH  32  33
ATOM     33  C   UNL     1      -9.132  19.069  67.507  0.00  0.00    +0.076 C 
ATOM     34  C   UNL     1      -7.763  18.752  66.632  0.00  0.00    +0.040 C 
ATOM     35  C   UNL     1      -6.934  19.880  67.160  0.00  0.00    +0.136 C 
ATOM     36  O   UNL     1      -7.771  20.825  67.710  0.00  0.00    -0.352 OA
ATOM     37  C   UNL     1      -9.029  20.673  67.110  0.00  0.00    +0.146 C 
BRANCH  35  38
ATOM     38  C   UNL     1      -5.959  19.314  68.140  0.00  0.00    +0.032 A 
ATOM     39  C   UNL     1      -5.737  20.000  69.330  0.00  0.00    +0.141 A 
ATOM     40  F   UNL     1      -5.506  21.336  69.178  0.00  0.00    -0.204 F 
ATOM     41  C   UNL     1      -5.438  19.331  70.500  0.00  0.00    +0.059 A 
ATOM     42  C   UNL     1      -5.314  17.949  70.462  0.00  0.00    +0.142 A 
ATOM     43  F   UNL     1      -5.195  17.286  71.630  0.00  0.00    -0.204 F 
ATOM     44  C   UNL     1      -5.286  17.312  69.228  0.00  0.00    +0.030 A 
ATOM     45  C   UNL     1      -5.644  17.975  68.060  0.00  0.00    +0.003 A 
ENDBRANCH  35  38
BRANCH  35  46
ATOM     46  C   UNL     1      -6.105  20.583  66.112  0.00  0.00    +0.160 C 
BRANCH  46  47
ATOM     47  N   UNL     1      -6.254  19.966  64.797  0.00  0.00    -0.227 N 
ATOM     48  N   UNL     1      -5.495  18.945  64.398  0.00  0.00    -0.145 NA
ATOM     49  C   UNL     1      -5.158  19.083  63.109  0.00  0.00    +0.221 A 
ATOM     50  N   UNL     1      -5.776  20.171  62.636  0.00  0.00    -0.201 NA
ATOM     51  C   UNL     1      -6.369  20.747  63.697  0.00  0.00    +0.197 A 
ENDBRANCH  46  47
ENDBRANCH  35  46
ENDBRANCH  32  33
ENDBRANCH  31  32
ENDBRANCH   4  31
TORSDOF 12
ENDMDL
MODEL 5
REMARK VINA RESULT:      -7.0      1.762      2.242
REMARK  Name = 
REMARK  12 active torsions:
REMARK  status: ('A' for Active; 'I' for Inactive)
REMARK    1  A    between atoms: C_2  and  C_3
REMARK    2  A    between atoms: C_3  and  C_4
REMARK    3  A    between atoms: C_3  and  N_7
REMARK    4  A    between atoms: N_10  and  C_11
REMARK    5  A    between atoms: C_14  and  N_15
REMARK    6  A    between atoms: N_18  and  C_19
REMARK    7  A    between atoms: C_22  and  O_23
REMARK    8  A    between atoms: O_23  and  C_24
REMARK    9  A    between atoms: C_24  and  C_25
REMARK   10  A    between atoms: C_28  and  C_29
REMARK   11  A    between atoms: C_28  and  C_35
REMARK   12  A    between atoms: C_29  and  N_30
REMARK                            x       y       z     vdW  Elec       q    Type
REMARK                         _______ _______ _______ _____ _____    ______ ____
ROOT
ATOM      1  C   UNL     1      -9.577  16.332  67.755  0.00  0.00    +0.048 A 
ATOM      2  C   UNL     1      -9.911  17.587  68.223  0.00  0.00    +0.018 A 
ATOM      3  C   UNL     1      -9.437  18.759  67.665  0.00  0.00    +0.038 A 
ATOM      4  C   UNL     1      -8.475  18.641  66.681  0.00  0.00    +0.139 A 
ATOM      5  C   UNL     1      -8.248  17.429  66.051  0.00  0.00    +0.038 A 
ATOM      6  C   UNL     1      -8.929  16.320  66.525  0.00  0.00    +0.018 A 
ENDROOT
BRANCH   1  10
ATOM      7  N   UNL     1     -11.895  13.934  68.320  0.00  0.00    -0.304 N 
ATOM      8  C   UNL     1     -10.973  14.075  67.183  0.00  0.00    +0.112 C 
ATOM      9  C   UNL     1      -9.627  13.926  67.901  0.00  0.00    +0.112 C 
ATOM     10  N   UNL     1      -9.535  15.196  68.633  0.00  0.00    -0.304 N 
ATOM     11  C   UNL     1     -10.452  15.245  69.773  0.00  0.00    +0.112 C 
ATOM     12  C   UNL     1     -11.850  15.125  69.174  0.00  0.00    +0.112 C 
BRANCH   7  16
ATOM     13  C   UNL     1     -12.154  10.181  70.248  0.00  0.00    +0.070 A 
ATOM     14  C   UNL     1     -11.713  10.281  68.949  0.00  0.00    +0.019 A 
ATOM     15  C   UNL     1     -11.534  11.494  68.326  0.00  0.00    +0.016 A 
ATOM     16  C   UNL     1     -11.757  12.682  69.011  0.00  0.00    +0.048 A 
ATOM     17  C   UNL     1     -12.084  12.539  70.353  0.00  0.00    +0.016 A 
ATOM     18  C   UNL     1     -12.508  11.330  70.893  0.00  0.00    +0.019 A 
BRANCH  13  22
ATOM     19  N   UNL     1     -10.797   7.313  71.756  0.00  0.00    -0.200 N 
ATOM     20  C   UNL     1     -10.745   8.316  70.870  0.00  0.00    +0.352 A 
ATOM     21  O   UNL     1     -10.167   8.216  69.769  0.00  0.00    -0.244 OA
ATOM     22  N   UNL     1     -11.926   8.975  70.986  0.00  0.00    -0.240 N 
ATOM     23  C   UNL     1     -12.384   8.679  72.214  0.00  0.00    +0.207 A 
ATOM     24  N   UNL     1     -11.495   7.823  72.775  0.00  0.00    -0.144 NA
BRANCH  19  25
ATOM     25  C   UNL     1      -9.465   6.591  72.203  0.00  0.00    +0.140 C 
BRANCH  25  26
ATOM     26  C   UNL     1     -10.261   5.037  72.325  0.00  0.00    +0.174 C 
ATOM     27  O   UNL     1     -10.293   4.887  70.798  0.00  0.00    -0.221 OA
ATOM     28  C   UNL     1      -8.802   4.237  72.405  0.00  0.00    +0.038 C 
ENDBRANCH  25  26
BRANCH  25  30
ATOM     29  C   UNL     1      -9.006   7.273  74.265  0.00  0.00    +0.002 C 
ATOM     30  C   UNL     1      -9.764   6.928  73.791  0.00  0.00    +0.027 C 
ENDBRANCH  25  30
ENDBRANCH  19  25
ENDBRANCH  13  22
ENDBRANCH   7  16
ENDBRANCH   1  10
BRANCH   4  31
ATOM     31  O   UNL     1      -8.129  19.772  65.942  0.00  0.00    -0.475 OA
BRANCH  31  32
ATOM     32  C   UNL     1      -6.844  19.803  65.322  0.00  0.00    +0.208 C 
BRANCH  32  33
ATOM     33  C   UNL     1      -5.981  20.469  66.572  0.00  0.00    +0.076 C 
ATOM     34  C   UNL     1      -5.051  19.108  66.733  0.00  0.00    +0.040 C 
ATOM     35  C   UNL     1      -3.740  19.796  66.943  0.00  0.00    +0.136 C 
ATOM     36  O   UNL     1      -3.839  21.090  66.481  0.00  0.00    -0.352 OA
ATOM     37  C   UNL     1      -4.869  21.119  65.530  0.00  0.00    +0.146 C 
BRANCH  35  38
ATOM     38  C   UNL     1      -3.406  19.714  68.397  0.00  0.00    +0.032 A 
ATOM     39  C   UNL     1      -2.949  20.859  69.041  0.00  0.00    +0.141 A 
ATOM     40  F   UNL     1      -1.955  21.520  68.382  0.00  0.00    -0.204 F 
ATOM     41  C   UNL     1      -3.235  21.099  70.370  0.00  0.00    +0.059 A 
ATOM     42  C   UNL     1      -3.955  20.145  71.077  0.00  0.00    +0.142 A 
ATOM     43  F   UNL     1      -4.380  20.455  72.318  0.00  0.00    -0.204 F 
ATOM     44  C   UNL     1      -4.178  18.904  70.493  0.00  0.00    +0.030 A 
ATOM     45  C   UNL     1      -3.942  18.686  69.141  0.00  0.00    +0.003 A 
ENDBRANCH  35  38
BRANCH  35  46
ATOM     46  C   UNL     1      -2.581  19.158  66.216  0.00  0.00    +0.160 C 
BRANCH  46  47
ATOM     47  N   UNL     1      -2.882  17.787  65.812  0.00  0.00    -0.227 N 
ATOM     48  N   UNL     1      -2.294  16.732  66.375  0.00  0.00    -0.145 NA
ATOM     49  C   UNL     1      -2.008  15.803  65.452  0.00  0.00    +0.221 A 
ATOM     50  N   UNL     1      -2.493  16.225  64.279  0.00  0.00    -0.201 NA
ATOM     51  C   UNL     1      -2.945  17.473  64.495  0.00  0.00    +0.197 A 
ENDBRANCH  46  47
ENDBRANCH  35  46
ENDBRANCH  32  33
ENDBRANCH  31  32
ENDBRANCH   4  31
TORSDOF 12
ENDMDL
MODEL 6
REMARK VINA RESULT:      -7.0      2.421      3.711
REMARK  Name = 
REMARK  12 active torsions:
REMARK  status: ('A' for Active; 'I' for Inactive)
REMARK    1  A    between atoms: C_2  and  C_3
REMARK    2  A    between atoms: C_3  and  C_4
REMARK    3  A    between atoms: C_3  and  N_7
REMARK    4  A    between atoms: N_10  and  C_11
REMARK    5  A    between atoms: C_14  and  N_15
REMARK    6  A    between atoms: N_18  and  C_19
REMARK    7  A    between atoms: C_22  and  O_23
REMARK    8  A    between atoms: O_23  and  C_24
REMARK    9  A    between atoms: C_24  and  C_25
REMARK   10  A    between atoms: C_28  and  C_29
REMARK   11  A    between atoms: C_28  and  C_35
REMARK   12  A    between atoms: C_29  and  N_30
REMARK                            x       y       z     vdW  Elec       q    Type
REMARK                         _______ _______ _______ _____ _____    ______ ____
ROOT
ATOM      1  C   UNL     1     -11.645  14.541  66.922  0.00  0.00    +0.048 A 
ATOM      2  C   UNL     1     -11.279  15.505  67.840  0.00  0.00    +0.018 A 
ATOM      3  C   UNL     1     -10.538  16.624  67.514  0.00  0.00    +0.038 A 
ATOM      4  C   UNL     1     -10.032  16.690  66.231  0.00  0.00    +0.139 A 
ATOM      5  C   UNL     1     -10.517  15.862  65.232  0.00  0.00    +0.038 A 
ATOM      6  C   UNL     1     -11.436  14.890  65.593  0.00  0.00    +0.018 A 
ENDROOT
BRANCH   1  10
ATOM      7  N   UNL     1      -9.399  12.030  67.222  0.00  0.00    -0.304 N 
ATOM      8  C   UNL     1      -9.660  13.148  68.141  0.00  0.00    +0.112 C 
ATOM      9  C   UNL     1     -11.106  12.841  68.544  0.00  0.00    +0.112 C 
ATOM     10  N   UNL     1     -11.837  13.173  67.314  0.00  0.00    -0.304 N 
ATOM     11  C   UNL     1     -11.627  12.178  66.260  0.00  0.00    +0.112 C 
ATOM     12  C   UNL     1     -10.130  12.212  65.964  0.00  0.00    +0.112 C 
BRANCH   7  16
ATOM     13  C   UNL     1     -10.496   8.429  69.145  0.00  0.00    +0.070 A 
ATOM     14  C   UNL     1     -10.450   8.513  67.772  0.00  0.00    +0.019 A 
ATOM     15  C   UNL     1     -10.011   9.642  67.121  0.00  0.00    +0.016 A 
ATOM     16  C   UNL     1      -9.554  10.741  67.838  0.00  0.00    +0.048 A 
ATOM     17  C   UNL     1      -9.505  10.571  69.216  0.00  0.00    +0.016 A 
ATOM     18  C   UNL     1     -10.181   9.544  69.865  0.00  0.00    +0.019 A 
BRANCH  13  22
ATOM     19  N   UNL     1      -9.878   5.548  71.059  0.00  0.00    -0.200 N 
ATOM     20  C   UNL     1      -9.489   6.709  70.516  0.00  0.00    +0.352 A 
ATOM     21  O   UNL     1      -8.314   6.927  70.156  0.00  0.00    -0.244 OA
ATOM     22  N   UNL     1     -10.541   7.144  69.778  0.00  0.00    -0.240 N 
ATOM     23  C   UNL     1     -11.621   6.535  70.296  0.00  0.00    +0.207 A 
ATOM     24  N   UNL     1     -11.182   5.725  71.290  0.00  0.00    -0.144 NA
BRANCH  19  25
ATOM     25  C   UNL     1      -9.093   4.958  72.296  0.00  0.00    +0.140 C 
BRANCH  25  26
ATOM     26  C   UNL     1      -9.210   3.323  71.684  0.00  0.00    +0.174 C 
ATOM     27  O   UNL     1      -8.085   3.576  70.671  0.00  0.00    -0.221 OA
ATOM     28  C   UNL     1      -8.114   2.767  72.809  0.00  0.00    +0.038 C 
ENDBRANCH  25  26
BRANCH  25  30
ATOM     29  C   UNL     1     -10.446   5.157  74.044  0.00  0.00    +0.002 C 
ATOM     30  C   UNL     1     -10.490   4.792  73.159  0.00  0.00    +0.027 C 
ENDBRANCH  25  30
ENDBRANCH  19  25
ENDBRANCH  13  22
ENDBRANCH   7  16
ENDBRANCH   1  10
BRANCH   4  31
ATOM     31  O   UNL     1      -9.468  17.888  65.792  0.00  0.00    -0.475 OA
BRANCH  31  32
ATOM     32  C   UNL     1      -8.975  18.799  66.773  0.00  0.00    +0.208 C 
BRANCH  32  33
ATOM     33  C   UNL     1      -7.358  18.459  66.638  0.00  0.00    +0.076 C 
ATOM     34  C   UNL     1      -6.960  20.066  66.631  0.00  0.00    +0.040 C 
ATOM     35  C   UNL     1      -5.760  19.970  67.520  0.00  0.00    +0.136 C 
ATOM     36  O   UNL     1      -5.827  18.791  68.227  0.00  0.00    -0.352 OA
ATOM     37  C   UNL     1      -7.175  18.409  68.283  0.00  0.00    +0.146 C 
BRANCH  35  38
ATOM     38  C   UNL     1      -4.543  20.073  66.660  0.00  0.00    +0.032 A 
ATOM     39  C   UNL     1      -3.678  18.984  66.597  0.00  0.00    +0.141 A 
ATOM     40  F   UNL     1      -3.337  18.463  67.810  0.00  0.00    -0.204 F 
ATOM     41  C   UNL     1      -2.973  18.692  65.447  0.00  0.00    +0.059 A 
ATOM     42  C   UNL     1      -3.104  19.538  64.354  0.00  0.00    +0.142 A 
ATOM     43  F   UNL     1      -2.555  19.160  63.183  0.00  0.00    -0.204 F 
ATOM     44  C   UNL     1      -3.765  20.749  64.520  0.00  0.00    +0.030 A 
ATOM     45  C   UNL     1      -4.521  21.015  65.656  0.00  0.00    +0.003 A 
ENDBRANCH  35  38
BRANCH  35  46
ATOM     46  C   UNL     1      -5.647  21.084  68.532  0.00  0.00    +0.160 C 
BRANCH  46  47
ATOM     47  N   UNL     1      -4.883  20.675  69.708  0.00  0.00    -0.227 N 
ATOM     48  N   UNL     1      -5.390  20.719  70.939  0.00  0.00    -0.145 NA
ATOM     49  C   UNL     1      -4.468  21.142  71.814  0.00  0.00    +0.221 A 
ATOM     50  N   UNL     1      -3.314  21.296  71.154  0.00  0.00    -0.201 NA
ATOM     51  C   UNL     1      -3.603  21.093  69.857  0.00  0.00    +0.197 A 
ENDBRANCH  46  47
ENDBRANCH  35  46
ENDBRANCH  32  33
ENDBRANCH  31  32
ENDBRANCH   4  31
TORSDOF 12
ENDMDL
MODEL 7
REMARK VINA RESULT:      -7.0      2.395      3.347
REMARK  Name = 
REMARK  12 active torsions:
REMARK  status: ('A' for Active; 'I' for Inactive)
REMARK    1  A    between atoms: C_2  and  C_3
REMARK    2  A    between atoms: C_3  and  C_4
REMARK    3  A    between atoms: C_3  and  N_7
REMARK    4  A    between atoms: N_10  and  C_11
REMARK    5  A    between atoms: C_14  and  N_15
REMARK    6  A    between atoms: N_18  and  C_19
REMARK    7  A    between atoms: C_22  and  O_23
REMARK    8  A    between atoms: O_23  and  C_24
REMARK    9  A    between atoms: C_24  and  C_25
REMARK   10  A    between atoms: C_28  and  C_29
REMARK   11  A    between atoms: C_28  and  C_35
REMARK   12  A    between atoms: C_29  and  N_30
REMARK                            x       y       z     vdW  Elec       q    Type
REMARK                         _______ _______ _______ _____ _____    ______ ____
ROOT
ATOM      1  C   UNL     1     -11.596  14.529  66.973  0.00  0.00    +0.048 A 
ATOM      2  C   UNL     1     -11.254  15.534  67.857  0.00  0.00    +0.018 A 
ATOM      3  C   UNL     1     -10.397  16.568  67.539  0.00  0.00    +0.038 A 
ATOM      4  C   UNL     1      -9.753  16.497  66.319  0.00  0.00    +0.139 A 
ATOM      5  C   UNL     1     -10.193  15.631  65.332  0.00  0.00    +0.038 A 
ATOM      6  C   UNL     1     -11.219  14.758  65.654  0.00  0.00    +0.018 A 
ENDROOT
BRANCH   1  10
ATOM      7  N   UNL     1      -9.638  11.809  67.423  0.00  0.00    -0.304 N 
ATOM      8  C   UNL     1      -9.777  12.996  68.280  0.00  0.00    +0.112 C 
ATOM      9  C   UNL     1     -11.249  12.870  68.687  0.00  0.00    +0.112 C 
ATOM     10  N   UNL     1     -11.936  13.213  67.435  0.00  0.00    -0.304 N 
ATOM     11  C   UNL     1     -11.834  12.147  66.437  0.00  0.00    +0.112 C 
ATOM     12  C   UNL     1     -10.342  12.001  66.152  0.00  0.00    +0.112 C 
BRANCH   7  16
ATOM     13  C   UNL     1      -9.898   7.989  69.217  0.00  0.00    +0.070 A 
ATOM     14  C   UNL     1      -9.545   9.096  69.955  0.00  0.00    +0.019 A 
ATOM     15  C   UNL     1      -9.539  10.363  69.420  0.00  0.00    +0.016 A 
ATOM     16  C   UNL     1      -9.934  10.579  68.105  0.00  0.00    +0.048 A 
ATOM     17  C   UNL     1     -10.397   9.455  67.433  0.00  0.00    +0.016 A 
ATOM     18  C   UNL     1     -10.158   8.164  67.889  0.00  0.00    +0.019 A 
BRANCH  13  22
ATOM     19  N   UNL     1     -10.089   5.073  71.166  0.00  0.00    -0.200 N 
ATOM     20  C   UNL     1      -9.393   6.049  70.570  0.00  0.00    +0.352 A 
ATOM     21  O   UNL     1      -8.235   5.884  70.134  0.00  0.00    -0.244 OA
ATOM     22  N   UNL     1     -10.302   6.788  69.885  0.00  0.00    -0.240 N 
ATOM     23  C   UNL     1     -11.482   6.553  70.484  0.00  0.00    +0.207 A 
ATOM     24  N   UNL     1     -11.254   5.653  71.472  0.00  0.00    -0.144 NA
BRANCH  19  25
ATOM     25  C   UNL     1      -9.448   4.274  72.369  0.00  0.00    +0.140 C 
BRANCH  25  26
ATOM     26  C   UNL     1     -10.020   2.740  71.750  0.00  0.00    +0.174 C 
ATOM     27  O   UNL     1      -8.890   2.690  70.712  0.00  0.00    -0.221 OA
ATOM     28  C   UNL     1      -9.092   1.893  72.846  0.00  0.00    +0.038 C 
ENDBRANCH  25  26
BRANCH  25  30
ATOM     29  C   UNL     1     -10.636   4.756  74.182  0.00  0.00    +0.002 C 
ATOM     30  C   UNL     1     -10.809   4.472  73.283  0.00  0.00    +0.027 C 
ENDBRANCH  25  30
ENDBRANCH  19  25
ENDBRANCH  13  22
ENDBRANCH   7  16
ENDBRANCH   1  10
BRANCH   4  31
ATOM     31  O   UNL     1      -9.052  17.614  65.864  0.00  0.00    -0.475 OA
BRANCH  31  32
ATOM     32  C   UNL     1      -9.404  18.892  66.393  0.00  0.00    +0.208 C 
BRANCH  32  33
ATOM     33  C   UNL     1      -7.883  19.544  66.503  0.00  0.00    +0.076 C 
ATOM     34  C   UNL     1      -7.846  19.332  68.145  0.00  0.00    +0.040 C 
ATOM     35  C   UNL     1      -6.431  18.856  68.244  0.00  0.00    +0.136 C 
ATOM     36  O   UNL     1      -6.024  18.418  67.004  0.00  0.00    -0.352 OA
ATOM     37  C   UNL     1      -7.173  18.064  66.284  0.00  0.00    +0.146 C 
BRANCH  35  38
ATOM     38  C   UNL     1      -5.605  19.984  68.771  0.00  0.00    +0.032 A 
ATOM     39  C   UNL     1      -5.644  20.258  70.135  0.00  0.00    +0.141 A 
ATOM     40  F   UNL     1      -6.900  20.329  70.661  0.00  0.00    -0.204 F 
ATOM     41  C   UNL     1      -4.539  20.749  70.801  0.00  0.00    +0.059 A 
ATOM     42  C   UNL     1      -3.388  21.013  70.073  0.00  0.00    +0.142 A 
ATOM     43  F   UNL     1      -2.263  21.326  70.747  0.00  0.00    -0.204 F 
ATOM     44  C   UNL     1      -3.448  20.977  68.685  0.00  0.00    +0.030 A 
ATOM     45  C   UNL     1      -4.539  20.429  68.021  0.00  0.00    +0.003 A 
ENDBRANCH  35  38
BRANCH  35  46
ATOM     46  C   UNL     1      -6.227  17.710  69.205  0.00  0.00    +0.160 C 
BRANCH  46  47
ATOM     47  N   UNL     1      -5.050  16.917  68.863  0.00  0.00    -0.227 N 
ATOM     48  N   UNL     1      -5.130  15.630  68.524  0.00  0.00    -0.145 NA
ATOM     49  C   UNL     1      -4.116  14.938  69.061  0.00  0.00    +0.221 A 
ATOM     50  N   UNL     1      -3.314  15.804  69.691  0.00  0.00    -0.201 NA
ATOM     51  C   UNL     1      -3.941  16.992  69.637  0.00  0.00    +0.197 A 
ENDBRANCH  46  47
ENDBRANCH  35  46
ENDBRANCH  32  33
ENDBRANCH  31  32
ENDBRANCH   4  31
TORSDOF 12
ENDMDL
MODEL 8
REMARK VINA RESULT:      -6.9      3.043      4.148
REMARK  Name = 
REMARK  12 active torsions:
REMARK  status: ('A' for Active; 'I' for Inactive)
REMARK    1  A    between atoms: C_2  and  C_3
REMARK    2  A    between atoms: C_3  and  C_4
REMARK    3  A    between atoms: C_3  and  N_7
REMARK    4  A    between atoms: N_10  and  C_11
REMARK    5  A    between atoms: C_14  and  N_15
REMARK    6  A    between atoms: N_18  and  C_19
REMARK    7  A    between atoms: C_22  and  O_23
REMARK    8  A    between atoms: O_23  and  C_24
REMARK    9  A    between atoms: C_24  and  C_25
REMARK   10  A    between atoms: C_28  and  C_29
REMARK   11  A    between atoms: C_28  and  C_35
REMARK   12  A    between atoms: C_29  and  N_30
REMARK                            x       y       z     vdW  Elec       q    Type
REMARK                         _______ _______ _______ _____ _____    ______ ____
ROOT
ATOM      1  C   UNL     1     -11.837  14.279  66.720  0.00  0.00    +0.048 A 
ATOM      2  C   UNL     1     -11.692  15.056  67.852  0.00  0.00    +0.018 A 
ATOM      3  C   UNL     1     -10.977  16.238  67.878  0.00  0.00    +0.038 A 
ATOM      4  C   UNL     1     -10.266  16.566  66.741  0.00  0.00    +0.139 A 
ATOM      5  C   UNL     1     -10.524  15.935  65.534  0.00  0.00    +0.038 A 
ATOM      6  C   UNL     1     -11.428  14.886  65.538  0.00  0.00    +0.018 A 
ENDROOT
BRANCH   1  10
ATOM      7  N   UNL     1      -9.539  11.839  67.172  0.00  0.00    -0.304 N 
ATOM      8  C   UNL     1     -10.116  12.756  68.166  0.00  0.00    +0.112 C 
ATOM      9  C   UNL     1     -11.587  12.329  68.114  0.00  0.00    +0.112 C 
ATOM     10  N   UNL     1     -12.007  12.856  66.810  0.00  0.00    -0.304 N 
ATOM     11  C   UNL     1     -11.455  12.083  65.695  0.00  0.00    +0.112 C 
ATOM     12  C   UNL     1      -9.940  12.224  65.816  0.00  0.00    +0.112 C 
BRANCH   7  16
ATOM     13  C   UNL     1      -9.505   7.669  67.866  0.00  0.00    +0.070 A 
ATOM     14  C   UNL     1      -9.209   8.557  68.875  0.00  0.00    +0.019 A 
ATOM     15  C   UNL     1      -9.299   9.919  68.702  0.00  0.00    +0.016 A 
ATOM     16  C   UNL     1      -9.737  10.453  67.497  0.00  0.00    +0.048 A 
ATOM     17  C   UNL     1     -10.140   9.523  66.548  0.00  0.00    +0.016 A 
ATOM     18  C   UNL     1      -9.806   8.176  66.636  0.00  0.00    +0.019 A 
BRANCH  13  22
ATOM     19  N   UNL     1      -9.407   4.239  68.617  0.00  0.00    -0.200 N 
ATOM     20  C   UNL     1      -8.836   5.364  68.168  0.00  0.00    +0.352 A 
ATOM     21  O   UNL     1      -7.950   5.369  67.290  0.00  0.00    -0.244 OA
ATOM     22  N   UNL     1      -9.812   6.307  68.186  0.00  0.00    -0.240 N 
ATOM     23  C   UNL     1     -10.719   5.870  69.076  0.00  0.00    +0.207 A 
ATOM     24  N   UNL     1     -10.286   4.668  69.528  0.00  0.00    -0.144 NA
BRANCH  19  25
ATOM     25  C   UNL     1      -8.501   3.049  69.128  0.00  0.00    +0.140 C 
BRANCH  25  26
ATOM     26  C   UNL     1      -9.454   1.858  68.269  0.00  0.00    +0.174 C 
ATOM     27  O   UNL     1      -8.745   2.182  66.947  0.00  0.00    -0.221 OA
ATOM     28  C   UNL     1      -8.349   0.656  68.603  0.00  0.00    +0.038 C 
ENDBRANCH  25  26
BRANCH  25  30
ATOM     29  C   UNL     1      -8.906   2.829  71.299  0.00  0.00    +0.002 C 
ATOM     30  C   UNL     1      -9.417   2.878  70.490  0.00  0.00    +0.027 C 
ENDBRANCH  25  30
ENDBRANCH  19  25
ENDBRANCH  13  22
ENDBRANCH   7  16
ENDBRANCH   1  10
BRANCH   4  31
ATOM     31  O   UNL     1      -9.712  17.843  66.640  0.00  0.00    -0.475 OA
BRANCH  31  32
ATOM     32  C   UNL     1     -10.167  18.847  67.545  0.00  0.00    +0.208 C 
BRANCH  32  33
ATOM     33  C   UNL     1      -8.740  19.666  67.747  0.00  0.00    +0.076 C 
ATOM     34  C   UNL     1      -7.977  18.314  68.324  0.00  0.00    +0.040 C 
ATOM     35  C   UNL     1      -6.683  18.500  67.597  0.00  0.00    +0.136 C 
ATOM     36  O   UNL     1      -6.888  19.360  66.541  0.00  0.00    -0.352 OA
ATOM     37  C   UNL     1      -8.248  19.302  66.209  0.00  0.00    +0.146 C 
BRANCH  35  38
ATOM     38  C   UNL     1      -5.674  19.002  68.578  0.00  0.00    +0.032 A 
ATOM     39  C   UNL     1      -4.700  19.892  68.136  0.00  0.00    +0.141 A 
ATOM     40  F   UNL     1      -4.070  19.516  66.987  0.00  0.00    -0.204 F 
ATOM     41  C   UNL     1      -4.193  20.872  68.965  0.00  0.00    +0.059 A 
ATOM     42  C   UNL     1      -4.639  20.927  70.279  0.00  0.00    +0.142 A 
ATOM     43  F   UNL     1      -4.275  21.983  71.033  0.00  0.00    -0.204 F 
ATOM     44  C   UNL     1      -5.411  19.881  70.769  0.00  0.00    +0.030 A 
ATOM     45  C   UNL     1      -5.967  18.930  69.922  0.00  0.00    +0.003 A 
ENDBRANCH  35  38
BRANCH  35  46
ATOM     46  C   UNL     1      -6.105  17.229  67.024  0.00  0.00    +0.160 C 
BRANCH  46  47
ATOM     47  N   UNL     1      -6.402  16.070  67.862  0.00  0.00    -0.227 N 
ATOM     48  N   UNL     1      -5.489  15.513  68.657  0.00  0.00    -0.145 NA
ATOM     49  C   UNL     1      -5.597  14.178  68.635  0.00  0.00    +0.221 A 
ATOM     50  N   UNL     1      -6.652  13.863  67.876  0.00  0.00    -0.201 NA
ATOM     51  C   UNL     1      -7.080  15.020  67.341  0.00  0.00    +0.197 A 
ENDBRANCH  46  47
ENDBRANCH  35  46
ENDBRANCH  32  33
ENDBRANCH  31  32
ENDBRANCH   4  31
TORSDOF 12
ENDMDL
MODEL 9
REMARK VINA RESULT:      -6.9      3.416      4.322
REMARK  Name = 
REMARK  12 active torsions:
REMARK  status: ('A' for Active; 'I' for Inactive)
REMARK    1  A    between atoms: C_2  and  C_3
REMARK    2  A    between atoms: C_3  and  C_4
REMARK    3  A    between atoms: C_3  and  N_7
REMARK    4  A    between atoms: N_10  and  C_11
REMARK    5  A    between atoms: C_14  and  N_15
REMARK    6  A    between atoms: N_18  and  C_19
REMARK    7  A    between atoms: C_22  and  O_23
REMARK    8  A    between atoms: O_23  and  C_24
REMARK    9  A    between atoms: C_24  and  C_25
REMARK   10  A    between atoms: C_28  and  C_29
REMARK   11  A    between atoms: C_28  and  C_35
REMARK   12  A    between atoms: C_29  and  N_30
REMARK                            x       y       z     vdW  Elec       q    Type
REMARK                         _______ _______ _______ _____ _____    ______ ____
ROOT
ATOM      1  C   UNL     1     -12.004  13.724  67.424  0.00  0.00    +0.048 A 
ATOM      2  C   UNL     1     -12.023  14.107  68.751  0.00  0.00    +0.018 A 
ATOM      3  C   UNL     1     -11.452  15.275  69.215  0.00  0.00    +0.038 A 
ATOM      4  C   UNL     1     -10.710  16.013  68.313  0.00  0.00    +0.139 A 
ATOM      5  C   UNL     1     -10.814  15.782  66.951  0.00  0.00    +0.038 A 
ATOM      6  C   UNL     1     -11.590  14.712  66.537  0.00  0.00    +0.018 A 
ENDROOT
BRANCH   1  10
ATOM      7  N   UNL     1      -9.445  11.534  67.115  0.00  0.00    -0.304 N 
ATOM      8  C   UNL     1     -10.104  12.014  68.339  0.00  0.00    +0.112 C 
ATOM      9  C   UNL     1     -11.519  11.468  68.121  0.00  0.00    +0.112 C 
ATOM     10  N   UNL     1     -12.015  12.338  67.047  0.00  0.00    -0.304 N 
ATOM     11  C   UNL     1     -11.398  12.031  65.756  0.00  0.00    +0.112 C 
ATOM     12  C   UNL     1      -9.907  12.290  65.947  0.00  0.00    +0.112 C 
BRANCH   7  16
ATOM     13  C   UNL     1      -8.891   7.373  66.617  0.00  0.00    +0.070 A 
ATOM     14  C   UNL     1      -9.024   7.924  67.871  0.00  0.00    +0.019 A 
ATOM     15  C   UNL     1      -9.294   9.260  68.059  0.00  0.00    +0.016 A 
ATOM     16  C   UNL     1      -9.485  10.105  66.973  0.00  0.00    +0.048 A 
ATOM     17  C   UNL     1      -9.461   9.486  65.729  0.00  0.00    +0.016 A 
ATOM     18  C   UNL     1      -8.940   8.211  65.542  0.00  0.00    +0.019 A 
BRANCH  13  22
ATOM     19  N   UNL     1      -8.536   3.878  66.668  0.00  0.00    -0.200 N 
ATOM     20  C   UNL     1      -8.059   5.114  66.860  0.00  0.00    +0.352 A 
ATOM     21  O   UNL     1      -6.854   5.403  66.718  0.00  0.00    -0.244 OA
ATOM     22  N   UNL     1      -9.037   5.958  66.444  0.00  0.00    -0.240 N 
ATOM     23  C   UNL     1     -10.177   5.249  66.508  0.00  0.00    +0.207 A 
ATOM     24  N   UNL     1      -9.845   3.999  66.914  0.00  0.00    -0.144 NA
BRANCH  19  25
ATOM     25  C   UNL     1      -7.867   2.654  67.408  0.00  0.00    +0.140 C 
BRANCH  25  26
ATOM     26  C   UNL     1      -8.046   1.616  66.010  0.00  0.00    +0.174 C 
ATOM     27  O   UNL     1      -6.865   2.296  65.302  0.00  0.00    -0.221 OA
ATOM     28  C   UNL     1      -7.031   0.468  66.667  0.00  0.00    +0.038 C 
ENDBRANCH  25  26
BRANCH  25  30
ATOM     29  C   UNL     1      -9.310   1.996  68.961  0.00  0.00    +0.002 C 
ATOM     30  C   UNL     1      -9.322   2.170  68.019  0.00  0.00    +0.027 C 
ENDBRANCH  25  30
ENDBRANCH  19  25
ENDBRANCH  13  22
ENDBRANCH   7  16
ENDBRANCH   1  10
BRANCH   4  31
ATOM     31  O   UNL     1     -10.300  17.297  68.671  0.00  0.00    -0.475 OA
BRANCH  31  32
ATOM     32  C   UNL     1     -10.457  18.345  67.715  0.00  0.00    +0.208 C 
BRANCH  32  33
ATOM     33  C   UNL     1      -9.207  19.318  68.205  0.00  0.00    +0.076 C 
ATOM     34  C   UNL     1      -8.092  18.126  67.929  0.00  0.00    +0.040 C 
ATOM     35  C   UNL     1      -7.039  18.989  67.309  0.00  0.00    +0.136 C 
ATOM     36  O   UNL     1      -7.623  20.159  66.878  0.00  0.00    -0.352 OA
ATOM     37  C   UNL     1      -8.985  19.898  66.670  0.00  0.00    +0.146 C 
BRANCH  35  38
ATOM     38  C   UNL     1      -5.967  19.207  68.326  0.00  0.00    +0.032 A 
ATOM     39  C   UNL     1      -5.682  20.509  68.726  0.00  0.00    +0.141 A 
ATOM     40  F   UNL     1      -5.523  21.393  67.700  0.00  0.00    -0.204 F 
ATOM     41  C   UNL     1      -5.263  20.791  70.011  0.00  0.00    +0.059 A 
ATOM     42  C   UNL     1      -5.082  19.737  70.896  0.00  0.00    +0.142 A 
ATOM     43  F   UNL     1      -4.842  20.025  72.191  0.00  0.00    -0.204 F 
ATOM     44  C   UNL     1      -5.123  18.436  70.409  0.00  0.00    +0.030 A 
ATOM     45  C   UNL     1      -5.600  18.154  69.134  0.00  0.00    +0.003 A 
ENDBRANCH  35  38
BRANCH  35  46
ATOM     46  C   UNL     1      -6.356  18.372  66.113  0.00  0.00    +0.160 C 
BRANCH  46  47
ATOM     47  N   UNL     1      -5.797  19.387  65.222  0.00  0.00    -0.227 N 
ATOM     48  N   UNL     1      -6.254  19.580  63.985  0.00  0.00    -0.145 NA
ATOM     49  C   UNL     1      -5.242  19.820  63.141  0.00  0.00    +0.221 A 
ATOM     50  N   UNL     1      -4.112  19.867  63.856  0.00  0.00    -0.201 NA
ATOM     51  C   UNL     1      -4.454  19.515  65.108  0.00  0.00    +0.197 A 
ENDBRANCH  46  47
ENDBRANCH  35  46
ENDBRANCH  32  33
ENDBRANCH  31  32
ENDBRANCH   4  31
TORSDOF 12
ENDMDL
