MODEL 1
REMARK VINA RESULT:      -7.1      0.000      0.000
REMARK  Name = 
REMARK  5 active torsions:
REMARK  status: ('A' for Active; 'I' for Inactive)
REMARK    1  A    between atoms: C_6  and  O_7
REMARK    2  A    between atoms: O_7  and  C_8
REMARK    3  A    between atoms: C_8  and  C_10
REMARK    4  A    between atoms: C_10  and  C_11
REMARK    5  A    between atoms: C_10  and  C_13
REMARK                            x       y       z     vdW  Elec       q    Type
REMARK                         _______ _______ _______ _____ _____    ______ ____
ROOT
ATOM      1  O   UNL     1     -10.725  14.786  67.548  0.00  0.00    -0.452 OA
ENDROOT
BRANCH   1   9
ATOM      2  C   UNL     1     -12.157  14.015  64.107  0.00  0.00    +0.170 C 
ATOM      3  N   UNL     1     -11.916  12.972  64.588  0.00  0.00    +0.302 N 
ATOM      4  C   UNL     1     -10.315  13.033  64.967  0.00  0.00    +0.093 C 
ATOM      5  C   UNL     1      -9.676  11.443  65.036  0.00  0.00    +0.197 C 
ATOM      6  C   UNL     1     -11.202  11.619  65.363  0.00  0.00    +0.197 C 
ATOM      7  O   UNL     1     -10.754  10.866  63.913  0.00  0.00    -0.342 OA
ATOM      8  C   UNL     1     -10.405  12.773  66.622  0.00  0.00    +0.101 C 
ATOM      9  C   UNL     1     -11.539  13.932  66.552  0.00  0.00    +0.180 C 
ATOM     10  C   UNL     1     -10.547  14.359  65.328  0.00  0.00    +0.101 C 
ATOM     11  C   UNL     1     -10.620  13.003  64.250  0.00  0.00    +0.093 C 
ATOM     12  C   UNL     1     -12.483  12.209  63.697  0.00  0.00    +0.170 C 
ENDBRANCH   1   9
BRANCH   1  13
ATOM     13  C   UNL     1     -11.680  15.075  68.504  0.00  0.00    +0.323 C 
ATOM     14  O   UNL     1     -11.743  16.349  68.634  0.00  0.00    -0.250 OA
BRANCH  13  15
ATOM     15  C   UNL     1     -11.361  14.648  70.025  0.00  0.00    +0.154 C 
BRANCH  15  16
ATOM     16  C   UNL     1     -12.498  15.589  70.689  0.00  0.00    -0.009 A 
ATOM     17  C   UNL     1     -11.771  16.131  71.748  0.00  0.00    -0.004 A 
ATOM     18  C   UNL     1     -11.998  15.750  73.054  0.00  0.00    -0.000 A 
ATOM     19  C   UNL     1     -13.344  15.597  73.384  0.00  0.00    -0.000 A 
ATOM     20  C   UNL     1     -14.232  15.532  72.322  0.00  0.00    -0.000 A 
ATOM     21  C   UNL     1     -13.698  15.154  71.085  0.00  0.00    -0.004 A 
ENDBRANCH  15  16
BRANCH  15  22
ATOM     22  C   UNL     1     -12.183  13.241  70.049  0.00  0.00    +0.198 C 
ATOM     23  O   UNL     1     -11.526  12.170  69.841  0.00  0.00    -0.219 OA
ENDBRANCH  15  22
ENDBRANCH  13  15
ENDBRANCH   1  13
TORSDOF 5
ENDMDL
MODEL 2
REMARK VINA RESULT:      -7.0      3.592      5.031
REMARK  Name = 
REMARK  5 active torsions:
REMARK  status: ('A' for Active; 'I' for Inactive)
REMARK    1  A    between atoms: C_6  and  O_7
REMARK    2  A    between atoms: O_7  and  C_8
REMARK    3  A    between atoms: C_8  and  C_10
REMARK    4  A    between atoms: C_10  and  C_11
REMARK    5  A    between atoms: C_10  and  C_13
REMARK                            x       y       z     vdW  Elec       q    Type
REMARK                         _______ _______ _______ _____ _____    ______ ____
ROOT
ATOM      1  O   UNL     1     -11.279  16.988  68.720  0.00  0.00    -0.452 OA
ENDROOT
BRANCH   1   9
ATOM      2  C   UNL     1      -9.698  19.899  66.845  0.00  0.00    +0.170 C 
ATOM      3  N   UNL     1      -8.879  19.059  66.870  0.00  0.00    +0.302 N 
ATOM      4  C   UNL     1      -8.662  18.717  68.466  0.00  0.00    +0.093 C 
ATOM      5  C   UNL     1      -7.101  18.049  68.707  0.00  0.00    +0.197 C 
ATOM      6  C   UNL     1      -7.769  17.826  67.303  0.00  0.00    +0.197 C 
ATOM      7  O   UNL     1      -6.450  18.882  67.426  0.00  0.00    -0.342 OA
ATOM      8  C   UNL     1      -9.057  17.086  68.462  0.00  0.00    +0.101 C 
ATOM      9  C   UNL     1     -10.360  17.597  67.639  0.00  0.00    +0.180 C 
ATOM     10  C   UNL     1     -10.040  18.883  68.593  0.00  0.00    +0.101 C 
ATOM     11  C   UNL     1      -8.451  19.373  68.100  0.00  0.00    +0.093 C 
ATOM     12  C   UNL     1      -8.016  19.603  66.060  0.00  0.00    +0.170 C 
ENDBRANCH   1   9
BRANCH   1  13
ATOM     13  C   UNL     1     -10.946  15.649  68.638  0.00  0.00    +0.323 C 
ATOM     14  O   UNL     1     -11.806  15.069  67.883  0.00  0.00    -0.250 OA
BRANCH  13  15
ATOM     15  C   UNL     1     -11.098  14.763  69.976  0.00  0.00    +0.154 C 
BRANCH  15  16
ATOM     16  C   UNL     1     -12.317  15.630  70.595  0.00  0.00    -0.009 A 
ATOM     17  C   UNL     1     -11.701  16.122  71.744  0.00  0.00    -0.004 A 
ATOM     18  C   UNL     1     -12.027  15.653  72.999  0.00  0.00    -0.000 A 
ATOM     19  C   UNL     1     -13.391  15.444  73.200  0.00  0.00    -0.000 A 
ATOM     20  C   UNL     1     -14.182  15.422  72.063  0.00  0.00    -0.000 A 
ATOM     21  C   UNL     1     -13.532  15.138  70.856  0.00  0.00    -0.004 A 
ENDBRANCH  15  16
BRANCH  15  22
ATOM     22  C   UNL     1     -11.977  13.543  69.347  0.00  0.00    +0.198 C 
ATOM     23  O   UNL     1     -11.766  12.371  69.797  0.00  0.00    -0.219 OA
ENDBRANCH  15  22
ENDBRANCH  13  15
ENDBRANCH   1  13
TORSDOF 5
ENDMDL
MODEL 3
REMARK VINA RESULT:      -6.8      3.854      6.931
REMARK  Name = 
REMARK  5 active torsions:
REMARK  status: ('A' for Active; 'I' for Inactive)
REMARK    1  A    between atoms: C_6  and  O_7
REMARK    2  A    between atoms: O_7  and  C_8
REMARK    3  A    between atoms: C_8  and  C_10
REMARK    4  A    between atoms: C_10  and  C_11
REMARK    5  A    between atoms: C_10  and  C_13
REMARK                            x       y       z     vdW  Elec       q    Type
REMARK                         _______ _______ _______ _____ _____    ______ ____
ROOT
ATOM      1  O   UNL     1     -10.891  16.154  66.237  0.00  0.00    -0.452 OA
ENDROOT
BRANCH   1   9
ATOM      2  C   UNL     1     -10.206  19.671  67.521  0.00  0.00    +0.170 C 
ATOM      3  N   UNL     1      -9.152  19.208  67.295  0.00  0.00    +0.302 N 
ATOM      4  C   UNL     1      -9.085  17.830  68.194  0.00  0.00    +0.093 C 
ATOM      5  C   UNL     1      -7.448  17.420  68.501  0.00  0.00    +0.197 C 
ATOM      6  C   UNL     1      -7.752  18.223  67.186  0.00  0.00    +0.197 C 
ATOM      7  O   UNL     1      -6.951  19.003  68.458  0.00  0.00    -0.342 OA
ATOM      8  C   UNL     1      -8.849  16.706  66.971  0.00  0.00    +0.101 C 
ATOM      9  C   UNL     1     -10.097  17.478  66.278  0.00  0.00    +0.180 C 
ATOM     10  C   UNL     1     -10.429  17.662  67.866  0.00  0.00    +0.101 C 
ATOM     11  C   UNL     1      -9.073  18.561  68.465  0.00  0.00    +0.093 C 
ATOM     12  C   UNL     1      -8.429  20.281  67.449  0.00  0.00    +0.170 C 
ENDBRANCH   1   9
BRANCH   1  13
ATOM     13  C   UNL     1     -10.732  15.782  64.915  0.00  0.00    +0.323 C 
ATOM     14  O   UNL     1     -11.323  16.653  64.181  0.00  0.00    -0.250 OA
BRANCH  13  15
ATOM     15  C   UNL     1     -11.480  14.442  64.426  0.00  0.00    +0.154 C 
BRANCH  15  16
ATOM     16  C   UNL     1     -10.278  13.438  64.835  0.00  0.00    -0.009 A 
ATOM     17  C   UNL     1     -10.369  12.519  63.791  0.00  0.00    -0.004 A 
ATOM     18  C   UNL     1     -10.861  11.245  63.987  0.00  0.00    -0.000 A 
ATOM     19  C   UNL     1     -10.433  10.637  65.167  0.00  0.00    -0.000 A 
ATOM     20  C   UNL     1      -9.856  11.471  66.112  0.00  0.00    -0.000 A 
ATOM     21  C   UNL     1     -10.175  12.831  66.021  0.00  0.00    -0.004 A 
ENDBRANCH  15  16
BRANCH  15  22
ATOM     22  C   UNL     1     -12.426  14.214  65.734  0.00  0.00    +0.198 C 
ATOM     23  O   UNL     1     -13.627  13.842  65.537  0.00  0.00    -0.219 OA
ENDBRANCH  15  22
ENDBRANCH  13  15
ENDBRANCH   1  13
TORSDOF 5
ENDMDL
MODEL 4
REMARK VINA RESULT:      -6.7      2.604      4.070
REMARK  Name = 
REMARK  5 active torsions:
REMARK  status: ('A' for Active; 'I' for Inactive)
REMARK    1  A    between atoms: C_6  and  O_7
REMARK    2  A    between atoms: O_7  and  C_8
REMARK    3  A    between atoms: C_8  and  C_10
REMARK    4  A    between atoms: C_10  and  C_11
REMARK    5  A    between atoms: C_10  and  C_13
REMARK                            x       y       z     vdW  Elec       q    Type
REMARK                         _______ _______ _______ _____ _____    ______ ____
ROOT
ATOM      1  O   UNL     1     -10.213  13.920  68.154  0.00  0.00    -0.452 OA
ENDROOT
BRANCH   1   9
ATOM      2  C   UNL     1     -10.558  10.812  65.985  0.00  0.00    +0.170 C 
ATOM      3  N   UNL     1     -10.463  11.709  65.235  0.00  0.00    +0.302 N 
ATOM      4  C   UNL     1     -11.686  12.737  65.637  0.00  0.00    +0.093 C 
ATOM      5  C   UNL     1     -12.096  13.705  64.282  0.00  0.00    +0.197 C 
ATOM      6  C   UNL     1     -10.617  13.182  64.369  0.00  0.00    +0.197 C 
ATOM      7  O   UNL     1     -11.652  12.530  63.196  0.00  0.00    -0.342 OA
ATOM      8  C   UNL     1     -10.792  14.110  66.000  0.00  0.00    +0.101 C 
ATOM      9  C   UNL     1      -9.918  13.077  66.895  0.00  0.00    +0.180 C 
ATOM     10  C   UNL     1     -11.405  12.403  66.961  0.00  0.00    +0.101 C 
ATOM     11  C   UNL     1     -11.760  12.036  65.304  0.00  0.00    +0.093 C 
ATOM     12  C   UNL     1     -10.341  11.030  64.130  0.00  0.00    +0.170 C 
ENDBRANCH   1   9
BRANCH   1  13
ATOM     13  C   UNL     1      -9.367  14.997  67.965  0.00  0.00    +0.323 C 
ATOM     14  O   UNL     1      -8.216  14.689  68.444  0.00  0.00    -0.250 OA
BRANCH  13  15
ATOM     15  C   UNL     1      -9.674  16.338  68.803  0.00  0.00    +0.154 C 
BRANCH  15  16
ATOM     16  C   UNL     1      -9.356  17.355  67.585  0.00  0.00    -0.009 A 
ATOM     17  C   UNL     1      -8.910  18.461  68.307  0.00  0.00    -0.004 A 
ATOM     18  C   UNL     1      -9.674  19.602  68.431  0.00  0.00    -0.000 A 
ATOM     19  C   UNL     1     -10.329  19.987  67.262  0.00  0.00    -0.000 A 
ATOM     20  C   UNL     1     -10.392  19.038  66.254  0.00  0.00    -0.000 A 
ATOM     21  C   UNL     1     -10.239  17.703  66.645  0.00  0.00    -0.004 A 
ENDBRANCH  15  16
BRANCH  15  22
ATOM     22  C   UNL     1     -11.299  16.325  68.674  0.00  0.00    +0.198 C 
ATOM     23  O   UNL     1     -11.976  16.269  69.750  0.00  0.00    -0.219 OA
ENDBRANCH  15  22
ENDBRANCH  13  15
ENDBRANCH   1  13
TORSDOF 5
ENDMDL
MODEL 5
REMARK VINA RESULT:      -6.6      3.215      5.104
REMARK  Name = 
REMARK  5 active torsions:
REMARK  status: ('A' for Active; 'I' for Inactive)
REMARK    1  A    between atoms: C_6  and  O_7
REMARK    2  A    between atoms: O_7  and  C_8
REMARK    3  A    between atoms: C_8  and  C_10
REMARK    4  A    between atoms: C_10  and  C_11
REMARK    5  A    between atoms: C_10  and  C_13
REMARK                            x       y       z     vdW  Elec       q    Type
REMARK                         _______ _______ _______ _____ _____    ______ ____
ROOT
ATOM      1  O   UNL     1     -11.206  16.030  66.616  0.00  0.00    -0.452 OA
ENDROOT
BRANCH   1   9
ATOM      2  C   UNL     1     -11.517  12.303  67.326  0.00  0.00    +0.170 C 
ATOM      3  N   UNL     1     -10.970  12.382  66.291  0.00  0.00    +0.302 N 
ATOM      4  C   UNL     1     -11.980  13.262  65.335  0.00  0.00    +0.093 C 
ATOM      5  C   UNL     1     -11.674  12.903  63.686  0.00  0.00    +0.197 C 
ATOM      6  C   UNL     1     -10.476  12.745  64.689  0.00  0.00    +0.197 C 
ATOM      7  O   UNL     1     -11.178  11.355  64.023  0.00  0.00    -0.342 OA
ATOM      8  C   UNL     1     -10.966  14.545  64.958  0.00  0.00    +0.101 C 
ATOM      9  C   UNL     1     -10.710  14.568  66.560  0.00  0.00    +0.180 C 
ATOM     10  C   UNL     1     -12.246  14.020  66.474  0.00  0.00    +0.101 C 
ATOM     11  C   UNL     1     -12.101  12.535  65.590  0.00  0.00    +0.093 C 
ATOM     12  C   UNL     1     -10.646  11.128  66.145  0.00  0.00    +0.170 C 
ENDBRANCH   1   9
BRANCH   1  13
ATOM     13  C   UNL     1     -10.614  16.473  67.784  0.00  0.00    +0.323 C 
ATOM     14  O   UNL     1     -11.534  16.625  68.665  0.00  0.00    -0.250 OA
BRANCH  13  15
ATOM     15  C   UNL     1      -9.978  17.954  67.778  0.00  0.00    +0.154 C 
BRANCH  15  16
ATOM     16  C   UNL     1      -8.455  17.465  67.533  0.00  0.00    -0.009 A 
ATOM     17  C   UNL     1      -7.771  18.454  68.237  0.00  0.00    -0.004 A 
ATOM     18  C   UNL     1      -7.054  19.440  67.592  0.00  0.00    -0.000 A 
ATOM     19  C   UNL     1      -6.319  18.993  66.494  0.00  0.00    -0.000 A 
ATOM     20  C   UNL     1      -6.641  17.735  66.012  0.00  0.00    -0.000 A 
ATOM     21  C   UNL     1      -7.917  17.254  66.329  0.00  0.00    -0.004 A 
ENDBRANCH  15  16
BRANCH  15  22
ATOM     22  C   UNL     1     -10.341  18.356  66.240  0.00  0.00    +0.198 C 
ATOM     23  O   UNL     1     -10.594  19.578  65.994  0.00  0.00    -0.219 OA
ENDBRANCH  15  22
ENDBRANCH  13  15
ENDBRANCH   1  13
TORSDOF 5
ENDMDL
MODEL 6
REMARK VINA RESULT:      -6.6      3.400      6.695
REMARK  Name = 
REMARK  5 active torsions:
REMARK  status: ('A' for Active; 'I' for Inactive)
REMARK    1  A    between atoms: C_6  and  O_7
REMARK    2  A    between atoms: O_7  and  C_8
REMARK    3  A    between atoms: C_8  and  C_10
REMARK    4  A    between atoms: C_10  and  C_11
REMARK    5  A    between atoms: C_10  and  C_13
REMARK                            x       y       z     vdW  Elec       q    Type
REMARK                         _______ _______ _______ _____ _____    ______ ____
ROOT
ATOM      1  O   UNL     1      -9.818  15.099  66.887  0.00  0.00    -0.452 OA
ENDROOT
BRANCH   1   9
ATOM      2  C   UNL     1      -7.371  17.869  67.798  0.00  0.00    +0.170 C 
ATOM      3  N   UNL     1      -8.440  18.329  67.956  0.00  0.00    +0.302 N 
ATOM      4  C   UNL     1      -9.199  18.161  66.505  0.00  0.00    +0.093 C 
ATOM      5  C   UNL     1     -10.445  19.332  66.365  0.00  0.00    +0.197 C 
ATOM      6  C   UNL     1     -10.066  18.856  67.814  0.00  0.00    +0.197 C 
ATOM      7  O   UNL     1      -9.647  20.424  67.329  0.00  0.00    -0.342 OA
ATOM      8  C   UNL     1     -10.510  17.226  66.978  0.00  0.00    +0.101 C 
ATOM      9  C   UNL     1      -9.369  16.330  67.704  0.00  0.00    +0.180 C 
ATOM     10  C   UNL     1      -8.559  16.926  66.418  0.00  0.00    +0.101 C 
ATOM     11  C   UNL     1      -8.607  18.642  66.665  0.00  0.00    +0.093 C 
ATOM     12  C   UNL     1      -8.090  19.443  68.535  0.00  0.00    +0.170 C 
ENDBRANCH   1   9
BRANCH   1  13
ATOM     13  C   UNL     1     -10.950  14.711  67.579  0.00  0.00    +0.323 C 
ATOM     14  O   UNL     1     -10.578  14.090  68.638  0.00  0.00    -0.250 OA
BRANCH  13  15
ATOM     15  C   UNL     1     -11.884  13.586  66.902  0.00  0.00    +0.154 C 
BRANCH  15  16
ATOM     16  C   UNL     1     -10.959  13.390  65.588  0.00  0.00    -0.009 A 
ATOM     17  C   UNL     1     -11.928  13.512  64.594  0.00  0.00    -0.004 A 
ATOM     18  C   UNL     1     -12.362  12.424  63.867  0.00  0.00    -0.000 A 
ATOM     19  C   UNL     1     -11.349  11.542  63.488  0.00  0.00    -0.000 A 
ATOM     20  C   UNL     1     -10.133  11.690  64.137  0.00  0.00    -0.000 A 
ATOM     21  C   UNL     1     -10.164  12.337  65.378  0.00  0.00    -0.004 A 
ENDBRANCH  15  16
BRANCH  15  22
ATOM     22  C   UNL     1     -11.353  12.301  67.752  0.00  0.00    +0.198 C 
ATOM     23  O   UNL     1     -12.158  11.329  67.917  0.00  0.00    -0.219 OA
ENDBRANCH  15  22
ENDBRANCH  13  15
ENDBRANCH   1  13
TORSDOF 5
ENDMDL
MODEL 7
REMARK VINA RESULT:      -6.4      4.227      5.399
REMARK  Name = 
REMARK  5 active torsions:
REMARK  status: ('A' for Active; 'I' for Inactive)
REMARK    1  A    between atoms: C_6  and  O_7
REMARK    2  A    between atoms: O_7  and  C_8
REMARK    3  A    between atoms: C_8  and  C_10
REMARK    4  A    between atoms: C_10  and  C_11
REMARK    5  A    between atoms: C_10  and  C_13
REMARK                            x       y       z     vdW  Elec       q    Type
REMARK                         _______ _______ _______ _____ _____    ______ ____
ROOT
ATOM      1  O   UNL     1      -9.498  16.049  68.502  0.00  0.00    -0.452 OA
ENDROOT
BRANCH   1   9
ATOM      2  C   UNL     1     -10.647  15.274  64.957  0.00  0.00    +0.170 C 
ATOM      3  N   UNL     1     -11.402  14.717  65.661  0.00  0.00    +0.302 N 
ATOM      4  C   UNL     1     -10.471  13.737  66.602  0.00  0.00    +0.093 C 
ATOM      5  C   UNL     1     -11.411  12.421  67.173  0.00  0.00    +0.197 C 
ATOM      6  C   UNL     1     -12.168  13.763  66.864  0.00  0.00    +0.197 C 
ATOM      7  O   UNL     1     -12.400  12.433  65.840  0.00  0.00    -0.342 OA
ATOM      8  C   UNL     1     -10.880  14.329  68.117  0.00  0.00    +0.101 C 
ATOM      9  C   UNL     1     -10.574  15.767  67.430  0.00  0.00    +0.180 C 
ATOM     10  C   UNL     1      -9.552  14.785  66.620  0.00  0.00    +0.101 C 
ATOM     11  C   UNL     1     -10.608  13.653  65.838  0.00  0.00    +0.093 C 
ATOM     12  C   UNL     1     -12.271  14.347  64.763  0.00  0.00    +0.170 C 
ENDBRANCH   1   9
BRANCH   1  13
ATOM     13  C   UNL     1      -9.462  17.430  68.495  0.00  0.00    +0.323 C 
ATOM     14  O   UNL     1     -10.619  17.859  68.143  0.00  0.00    -0.250 OA
BRANCH  13  15
ATOM     15  C   UNL     1      -8.543  18.142  67.379  0.00  0.00    +0.154 C 
BRANCH  15  16
ATOM     16  C   UNL     1      -8.082  19.373  68.324  0.00  0.00    -0.009 A 
ATOM     17  C   UNL     1      -7.950  20.374  67.364  0.00  0.00    -0.004 A 
ATOM     18  C   UNL     1      -6.715  20.840  66.966  0.00  0.00    -0.000 A 
ATOM     19  C   UNL     1      -5.799  21.006  68.005  0.00  0.00    -0.000 A 
ATOM     20  C   UNL     1      -6.122  20.400  69.209  0.00  0.00    -0.000 A 
ATOM     21  C   UNL     1      -7.030  19.336  69.148  0.00  0.00    -0.004 A 
ENDBRANCH  15  16
BRANCH  15  22
ATOM     22  C   UNL     1      -7.214  17.213  67.546  0.00  0.00    +0.198 C 
ATOM     23  O   UNL     1      -6.615  16.844  66.486  0.00  0.00    -0.219 OA
ENDBRANCH  15  22
ENDBRANCH  13  15
ENDBRANCH   1  13
TORSDOF 5
ENDMDL
MODEL 8
REMARK VINA RESULT:      -6.3      3.312      4.763
REMARK  Name = 
REMARK  5 active torsions:
REMARK  status: ('A' for Active; 'I' for Inactive)
REMARK    1  A    between atoms: C_6  and  O_7
REMARK    2  A    between atoms: O_7  and  C_8
REMARK    3  A    between atoms: C_8  and  C_10
REMARK    4  A    between atoms: C_10  and  C_11
REMARK    5  A    between atoms: C_10  and  C_13
REMARK                            x       y       z     vdW  Elec       q    Type
REMARK                         _______ _______ _______ _____ _____    ______ ____
ROOT
ATOM      1  O   UNL     1      -9.183  14.985  67.639  0.00  0.00    -0.452 OA
ENDROOT
BRANCH   1   9
ATOM      2  C   UNL     1     -11.301  11.970  66.683  0.00  0.00    +0.170 C 
ATOM      3  N   UNL     1     -11.113  12.552  65.682  0.00  0.00    +0.302 N 
ATOM      4  C   UNL     1     -11.681  14.073  65.956  0.00  0.00    +0.093 C 
ATOM      5  C   UNL     1     -12.096  14.813  64.465  0.00  0.00    +0.197 C 
ATOM      6  C   UNL     1     -10.966  13.722  64.436  0.00  0.00    +0.197 C 
ATOM      7  O   UNL     1     -12.473  13.363  63.749  0.00  0.00    -0.342 OA
ATOM      8  C   UNL     1     -10.278  14.952  65.686  0.00  0.00    +0.101 C 
ATOM      9  C   UNL     1      -9.622  13.853  66.683  0.00  0.00    +0.180 C 
ATOM     10  C   UNL     1     -11.155  13.938  67.239  0.00  0.00    +0.101 C 
ATOM     11  C   UNL     1     -12.109  13.425  65.885  0.00  0.00    +0.093 C 
ATOM     12  C   UNL     1     -11.595  11.673  64.850  0.00  0.00    +0.170 C 
ENDBRANCH   1   9
BRANCH   1  13
ATOM     13  C   UNL     1      -8.167  15.577  66.911  0.00  0.00    +0.323 C 
ATOM     14  O   UNL     1      -7.114  14.855  67.037  0.00  0.00    -0.250 OA
BRANCH  13  15
ATOM     15  C   UNL     1      -7.607  16.993  67.437  0.00  0.00    +0.154 C 
BRANCH  15  16
ATOM     16  C   UNL     1      -9.064  17.673  67.623  0.00  0.00    -0.009 A 
ATOM     17  C   UNL     1      -9.194  18.303  66.387  0.00  0.00    -0.004 A 
ATOM     18  C   UNL     1      -9.097  19.673  66.256  0.00  0.00    -0.000 A 
ATOM     19  C   UNL     1      -9.734  20.394  67.266  0.00  0.00    -0.000 A 
ATOM     20  C   UNL     1     -10.089  19.680  68.399  0.00  0.00    -0.000 A 
ATOM     21  C   UNL     1      -9.390  18.489  68.630  0.00  0.00    -0.004 A 
ENDBRANCH  15  16
BRANCH  15  22
ATOM     22  C   UNL     1      -7.346  16.577  68.991  0.00  0.00    +0.198 C 
ATOM     23  O   UNL     1      -6.268  16.980  69.536  0.00  0.00    -0.219 OA
ENDBRANCH  15  22
ENDBRANCH  13  15
ENDBRANCH   1  13
TORSDOF 5
ENDMDL
MODEL 9
REMARK VINA RESULT:      -6.3      2.295      7.055
REMARK  Name = 
REMARK  5 active torsions:
REMARK  status: ('A' for Active; 'I' for Inactive)
REMARK    1  A    between atoms: C_6  and  O_7
REMARK    2  A    between atoms: O_7  and  C_8
REMARK    3  A    between atoms: C_8  and  C_10
REMARK    4  A    between atoms: C_10  and  C_11
REMARK    5  A    between atoms: C_10  and  C_13
REMARK                            x       y       z     vdW  Elec       q    Type
REMARK                         _______ _______ _______ _____ _____    ______ ____
ROOT
ATOM      1  O   UNL     1     -11.799  13.531  68.520  0.00  0.00    -0.452 OA
ENDROOT
BRANCH   1   9
ATOM      2  C   UNL     1     -11.585  16.372  71.044  0.00  0.00    +0.170 C 
ATOM      3  N   UNL     1     -11.900  15.425  71.662  0.00  0.00    +0.302 N 
ATOM      4  C   UNL     1     -13.280  14.883  70.945  0.00  0.00    +0.093 C 
ATOM      5  C   UNL     1     -14.198  13.975  72.073  0.00  0.00    +0.197 C 
ATOM      6  C   UNL     1     -12.641  14.005  72.275  0.00  0.00    +0.197 C 
ATOM      7  O   UNL     1     -13.627  14.840  73.370  0.00  0.00    -0.342 OA
ATOM      8  C   UNL     1     -12.788  13.336  70.519  0.00  0.00    +0.101 C 
ATOM      9  C   UNL     1     -11.498  14.116  69.917  0.00  0.00    +0.180 C 
ATOM     10  C   UNL     1     -12.678  15.231  69.737  0.00  0.00    +0.101 C 
ATOM     11  C   UNL     1     -13.200  15.537  71.362  0.00  0.00    +0.093 C 
ATOM     12  C   UNL     1     -11.781  15.924  72.860  0.00  0.00    +0.170 C 
ENDBRANCH   1   9
BRANCH   1  13
ATOM     13  C   UNL     1     -10.524  13.289  68.045  0.00  0.00    +0.323 C 
ATOM     14  O   UNL     1      -9.708  14.040  68.691  0.00  0.00    -0.250 OA
BRANCH  13  15
ATOM     15  C   UNL     1     -10.196  13.743  66.534  0.00  0.00    +0.154 C 
BRANCH  15  16
ATOM     16  C   UNL     1     -11.401  12.902  65.857  0.00  0.00    -0.009 A 
ATOM     17  C   UNL     1     -10.792  11.653  65.753  0.00  0.00    -0.004 A 
ATOM     18  C   UNL     1     -10.389  11.141  64.539  0.00  0.00    -0.000 A 
ATOM     19  C   UNL     1     -11.287  11.359  63.494  0.00  0.00    -0.000 A 
ATOM     20  C   UNL     1     -12.275  12.304  63.722  0.00  0.00    -0.000 A 
ATOM     21  C   UNL     1     -12.015  13.249  64.721  0.00  0.00    -0.004 A 
ENDBRANCH  15  16
BRANCH  15  22
ATOM     22  C   UNL     1     -10.922  15.202  66.568  0.00  0.00    +0.198 C 
ATOM     23  O   UNL     1     -10.312  16.178  66.024  0.00  0.00    -0.219 OA
ENDBRANCH  15  22
ENDBRANCH  13  15
ENDBRANCH   1  13
TORSDOF 5
ENDMDL
