MODEL 1
REMARK VINA RESULT:      -7.5      0.000      0.000
REMARK  Name = 
REMARK  6 active torsions:
REMARK  status: ('A' for Active; 'I' for Inactive)
REMARK    1  A    between atoms: O_2  and  C_3
REMARK    2  A    between atoms: C_9  and  O_10
REMARK    3  A    between atoms: O_10  and  C_11
REMARK    4  A    between atoms: C_14  and  N_15
REMARK    5  A    between atoms: N_18  and  C_19
REMARK    6  A    between atoms: C_27  and  C_28
REMARK                            x       y       z     vdW  Elec       q    Type
REMARK                         _______ _______ _______ _____ _____    ______ ____
ROOT
ATOM      1  C   UNL     1     -12.760  13.720  71.104  0.00  0.00    +0.145 A 
ATOM      2  C   UNL     1     -12.736  15.076  71.336  0.00  0.00    +0.091 A 
ATOM      3  C   UNL     1     -11.857  15.855  70.592  0.00  0.00    +0.012 A 
ATOM      4  C   UNL     1     -11.078  15.317  69.583  0.00  0.00    +0.053 A 
ATOM      5  C   UNL     1     -11.244  13.983  69.233  0.00  0.00    +0.087 A 
ATOM      6  N   UNL     1     -10.279  13.364  68.511  0.00  0.00    -0.244 NA
ATOM      7  C   UNL     1      -9.061  13.926  68.327  0.00  0.00    +0.102 A 
ATOM      8  C   UNL     1      -8.926  15.281  68.601  0.00  0.00    +0.058 A 
ATOM      9  C   UNL     1      -9.934  16.009  69.204  0.00  0.00    +0.148 A 
ATOM     10  C   UNL     1     -12.235  13.276  69.898  0.00  0.00    +0.056 A 
ENDROOT
BRANCH   2  11
ATOM     11  C   UNL     1     -13.149  15.545  72.664  0.00  0.00    +0.287 C 
ATOM     12  O   UNL     1     -14.260  16.107  72.745  0.00  0.00    -0.267 OA
ATOM     13  N   UNL     1     -12.279  15.464  73.796  0.00  0.00    -0.084 NA
ENDBRANCH   2  11
BRANCH   1  15
ATOM     14  C   UNL     1     -13.109  11.418  71.788  0.00  0.00    +0.252 C 
ATOM     15  O   UNL     1     -13.352  12.804  71.968  0.00  0.00    -0.471 OA
ENDBRANCH   1  15
BRANCH   9  16
ATOM     16  O   UNL     1     -10.077  17.385  69.031  0.00  0.00    -0.453 OA
BRANCH  16  17
ATOM     17  C   UNL     1      -9.166  18.005  68.168  0.00  0.00    +0.146 A 
ATOM     18  C   UNL     1      -7.992  18.480  68.741  0.00  0.00    +0.050 A 
ATOM     19  C   UNL     1      -7.323  19.592  68.246  0.00  0.00    +0.076 A 
ATOM     20 CL   UNL     1      -6.085  20.432  69.133  0.00  0.00    -0.081 Cl
ATOM     21  C   UNL     1      -7.736  20.099  67.042  0.00  0.00    +0.086 A 
ATOM     22  C   UNL     1      -8.984  19.763  66.533  0.00  0.00    +0.021 A 
ATOM     23  C   UNL     1      -9.724  18.809  67.182  0.00  0.00    +0.039 A 
BRANCH  21  24
ATOM     24  N   UNL     1      -6.791  20.768  66.197  0.00  0.00    -0.160 NA
ATOM     25  C   UNL     1      -6.304  20.170  64.989  0.00  0.00    +0.343 C 
ATOM     26  N   UNL     1      -6.341  20.852  63.731  0.00  0.00    -0.189 NA
ATOM     27  O   UNL     1      -6.110  18.918  65.052  0.00  0.00    -0.249 OA
BRANCH  26  28
ATOM     28  C   UNL     1      -5.680  20.255  62.598  0.00  0.00    +0.097 C 
ATOM     29  C   UNL     1      -6.070  20.570  61.206  0.00  0.00    +0.023 C 
ATOM     30  C   UNL     1      -4.842  21.233  61.776  0.00  0.00    +0.023 C 
ENDBRANCH  26  28
ENDBRANCH  21  24
ENDBRANCH  16  17
ENDBRANCH   9  16
TORSDOF 6
ENDMDL
MODEL 2
REMARK VINA RESULT:      -7.3      4.768      7.020
REMARK  Name = 
REMARK  6 active torsions:
REMARK  status: ('A' for Active; 'I' for Inactive)
REMARK    1  A    between atoms: O_2  and  C_3
REMARK    2  A    between atoms: C_9  and  O_10
REMARK    3  A    between atoms: O_10  and  C_11
REMARK    4  A    between atoms: C_14  and  N_15
REMARK    5  A    between atoms: N_18  and  C_19
REMARK    6  A    between atoms: C_27  and  C_28
REMARK                            x       y       z     vdW  Elec       q    Type
REMARK                         _______ _______ _______ _____ _____    ______ ____
ROOT
ATOM      1  C   UNL     1      -9.644   6.925  69.910  0.00  0.00    +0.145 A 
ATOM      2  C   UNL     1     -10.408   7.951  70.418  0.00  0.00    +0.091 A 
ATOM      3  C   UNL     1     -10.861   8.930  69.542  0.00  0.00    +0.012 A 
ATOM      4  C   UNL     1     -10.633   8.853  68.179  0.00  0.00    +0.053 A 
ATOM      5  C   UNL     1     -10.021   7.723  67.654  0.00  0.00    +0.087 A 
ATOM      6  N   UNL     1      -9.490   7.775  66.409  0.00  0.00    -0.244 NA
ATOM      7  C   UNL     1      -9.322   8.952  65.760  0.00  0.00    +0.102 A 
ATOM      8  C   UNL     1     -10.004  10.061  66.245  0.00  0.00    +0.058 A 
ATOM      9  C   UNL     1     -10.694  10.029  67.441  0.00  0.00    +0.148 A 
ATOM     10  C   UNL     1      -9.717   6.701  68.542  0.00  0.00    +0.056 A 
ENDROOT
BRANCH   2  11
ATOM     11  C   UNL     1     -10.227   8.294  71.834  0.00  0.00    +0.287 C 
ATOM     12  O   UNL     1      -9.217   8.964  72.129  0.00  0.00    -0.267 OA
ATOM     13  N   UNL     1     -11.104   7.794  72.848  0.00  0.00    -0.084 NA
ENDBRANCH   2  11
BRANCH   1  15
ATOM     14  C   UNL     1      -9.311   4.727  70.883  0.00  0.00    +0.252 C 
ATOM     15  O   UNL     1      -8.886   6.068  70.701  0.00  0.00    -0.471 OA
ENDBRANCH   1  15
BRANCH   9  16
ATOM     16  O   UNL     1     -11.774  10.868  67.710  0.00  0.00    -0.453 OA
BRANCH  16  17
ATOM     17  C   UNL     1     -11.471  12.195  68.034  0.00  0.00    +0.146 A 
ATOM     18  C   UNL     1     -11.603  12.554  69.370  0.00  0.00    +0.050 A 
ATOM     19  C   UNL     1     -11.955  13.839  69.761  0.00  0.00    +0.076 A 
ATOM     20 CL   UNL     1     -12.488  14.235  71.368  0.00  0.00    -0.081 Cl
ATOM     21  C   UNL     1     -11.971  14.815  68.798  0.00  0.00    +0.086 A 
ATOM     22  C   UNL     1     -12.008  14.470  67.454  0.00  0.00    +0.021 A 
ATOM     23  C   UNL     1     -11.881  13.148  67.111  0.00  0.00    +0.039 A 
BRANCH  21  24
ATOM     24  N   UNL     1     -11.699  16.174  69.166  0.00  0.00    -0.160 NA
ATOM     25  C   UNL     1     -10.581  16.890  68.629  0.00  0.00    +0.343 C 
ATOM     26  N   UNL     1     -10.721  18.177  68.017  0.00  0.00    -0.189 NA
ATOM     27  O   UNL     1      -9.527  16.201  68.472  0.00  0.00    -0.249 OA
BRANCH  26  28
ATOM     28  C   UNL     1      -9.533  18.908  67.655  0.00  0.00    +0.097 C 
ATOM     29  C   UNL     1      -9.327  19.446  66.293  0.00  0.00    +0.023 C 
ATOM     30  C   UNL     1      -9.770  20.391  67.379  0.00  0.00    +0.023 C 
ENDBRANCH  26  28
ENDBRANCH  21  24
ENDBRANCH  16  17
ENDBRANCH   9  16
TORSDOF 6
ENDMDL
MODEL 3
REMARK VINA RESULT:      -7.0      2.829      3.818
REMARK  Name = 
REMARK  6 active torsions:
REMARK  status: ('A' for Active; 'I' for Inactive)
REMARK    1  A    between atoms: O_2  and  C_3
REMARK    2  A    between atoms: C_9  and  O_10
REMARK    3  A    between atoms: O_10  and  C_11
REMARK    4  A    between atoms: C_14  and  N_15
REMARK    5  A    between atoms: N_18  and  C_19
REMARK    6  A    between atoms: C_27  and  C_28
REMARK                            x       y       z     vdW  Elec       q    Type
REMARK                         _______ _______ _______ _____ _____    ______ ____
ROOT
ATOM      1  C   UNL     1     -12.310  12.742  70.314  0.00  0.00    +0.145 A 
ATOM      2  C   UNL     1     -12.306  14.047  69.879  0.00  0.00    +0.091 A 
ATOM      3  C   UNL     1     -11.586  14.355  68.730  0.00  0.00    +0.012 A 
ATOM      4  C   UNL     1     -10.953  13.379  67.981  0.00  0.00    +0.053 A 
ATOM      5  C   UNL     1     -11.116  12.044  68.325  0.00  0.00    +0.087 A 
ATOM      6  N   UNL     1     -10.252  11.123  67.834  0.00  0.00    -0.244 NA
ATOM      7  C   UNL     1      -9.102  11.488  67.221  0.00  0.00    +0.102 A 
ATOM      8  C   UNL     1      -8.981  12.808  66.806  0.00  0.00    +0.058 A 
ATOM      9  C   UNL     1      -9.911  13.770  67.149  0.00  0.00    +0.148 A 
ATOM     10  C   UNL     1     -11.962  11.766  69.389  0.00  0.00    +0.056 A 
ENDROOT
BRANCH   2  11
ATOM     11  C   UNL     1     -12.526  15.097  70.881  0.00  0.00    +0.287 C 
ATOM     12  O   UNL     1     -11.522  15.512  71.495  0.00  0.00    -0.267 OA
ATOM     13  N   UNL     1     -13.839  15.550  71.221  0.00  0.00    -0.084 NA
ENDBRANCH   2  11
BRANCH   1  15
ATOM     14  C   UNL     1     -13.111  11.014  71.818  0.00  0.00    +0.252 C 
ATOM     15  O   UNL     1     -12.722  12.358  71.586  0.00  0.00    -0.471 OA
ENDBRANCH   1  15
BRANCH   9  16
ATOM     16  O   UNL     1     -10.135  14.910  66.378  0.00  0.00    -0.453 OA
BRANCH  16  17
ATOM     17  C   UNL     1      -9.461  16.072  66.769  0.00  0.00    +0.146 A 
ATOM     18  C   UNL     1     -10.181  17.259  66.704  0.00  0.00    +0.050 A 
ATOM     19  C   UNL     1      -9.574  18.481  66.441  0.00  0.00    +0.076 A 
ATOM     20 CL   UNL     1     -10.459  19.907  65.987  0.00  0.00    -0.081 Cl
ATOM     21  C   UNL     1      -8.204  18.525  66.449  0.00  0.00    +0.086 A 
ATOM     22  C   UNL     1      -7.466  17.353  66.346  0.00  0.00    +0.021 A 
ATOM     23  C   UNL     1      -8.129  16.153  66.384  0.00  0.00    +0.039 A 
BRANCH  21  24
ATOM     24  N   UNL     1      -7.540  19.743  66.812  0.00  0.00    -0.160 NA
ATOM     25  C   UNL     1      -7.084  19.982  68.148  0.00  0.00    +0.343 C 
ATOM     26  N   UNL     1      -5.741  20.383  68.437  0.00  0.00    -0.189 NA
ATOM     27  O   UNL     1      -7.849  19.546  69.062  0.00  0.00    -0.249 OA
BRANCH  26  28
ATOM     28  C   UNL     1      -5.404  20.770  69.784  0.00  0.00    +0.097 C 
ATOM     29  C   UNL     1      -4.721  19.848  70.718  0.00  0.00    +0.023 C 
ATOM     30  C   UNL     1      -3.905  20.916  70.038  0.00  0.00    +0.023 C 
ENDBRANCH  26  28
ENDBRANCH  21  24
ENDBRANCH  16  17
ENDBRANCH   9  16
TORSDOF 6
ENDMDL
MODEL 4
REMARK VINA RESULT:      -7.0      3.593      8.213
REMARK  Name = 
REMARK  6 active torsions:
REMARK  status: ('A' for Active; 'I' for Inactive)
REMARK    1  A    between atoms: O_2  and  C_3
REMARK    2  A    between atoms: C_9  and  O_10
REMARK    3  A    between atoms: O_10  and  C_11
REMARK    4  A    between atoms: C_14  and  N_15
REMARK    5  A    between atoms: N_18  and  C_19
REMARK    6  A    between atoms: C_27  and  C_28
REMARK                            x       y       z     vdW  Elec       q    Type
REMARK                         _______ _______ _______ _____ _____    ______ ____
ROOT
ATOM      1  C   UNL     1      -5.837  20.012  68.042  0.00  0.00    +0.145 A 
ATOM      2  C   UNL     1      -6.252  19.359  69.179  0.00  0.00    +0.091 A 
ATOM      3  C   UNL     1      -7.533  18.818  69.197  0.00  0.00    +0.012 A 
ATOM      4  C   UNL     1      -8.354  18.850  68.084  0.00  0.00    +0.053 A 
ATOM      5  C   UNL     1      -7.859  19.347  66.886  0.00  0.00    +0.087 A 
ATOM      6  N   UNL     1      -8.725  19.699  65.906  0.00  0.00    -0.244 NA
ATOM      7  C   UNL     1     -10.054  19.810  66.143  0.00  0.00    +0.102 A 
ATOM      8  C   UNL     1     -10.554  19.237  67.306  0.00  0.00    +0.058 A 
ATOM      9  C   UNL     1      -9.724  18.721  68.281  0.00  0.00    +0.148 A 
ATOM     10  C   UNL     1      -6.529  19.741  66.869  0.00  0.00    +0.056 A 
ENDROOT
BRANCH   2  11
ATOM     11  C   UNL     1      -5.628  19.747  70.451  0.00  0.00    +0.287 C 
ATOM     12  O   UNL     1      -6.059  20.782  70.999  0.00  0.00    -0.267 OA
ATOM     13  N   UNL     1      -4.506  19.040  70.985  0.00  0.00    -0.084 NA
ENDBRANCH   2  11
BRANCH   1  15
ATOM     14  C   UNL     1      -3.523  20.378  67.410  0.00  0.00    +0.252 C 
ATOM     15  O   UNL     1      -4.725  20.847  67.998  0.00  0.00    -0.471 OA
ENDBRANCH   1  15
BRANCH   9  16
ATOM     16  O   UNL     1     -10.127  17.716  69.159  0.00  0.00    -0.453 OA
BRANCH  16  17
ATOM     17  C   UNL     1     -10.388  16.462  68.597  0.00  0.00    +0.146 A 
ATOM     18  C   UNL     1     -11.358  15.689  69.223  0.00  0.00    +0.050 A 
ATOM     19  C   UNL     1     -11.311  14.301  69.230  0.00  0.00    +0.076 A 
ATOM     20 CL   UNL     1     -12.273  13.319  70.295  0.00  0.00    -0.081 Cl
ATOM     21  C   UNL     1     -10.387  13.692  68.421  0.00  0.00    +0.086 A 
ATOM     22  C   UNL     1      -9.313  14.416  67.920  0.00  0.00    +0.021 A 
ATOM     23  C   UNL     1      -9.278  15.771  68.128  0.00  0.00    +0.039 A 
BRANCH  21  24
ATOM     24  N   UNL     1     -10.661  12.388  67.894  0.00  0.00    -0.160 NA
ATOM     25  C   UNL     1     -10.918  12.177  66.500  0.00  0.00    +0.343 C 
ATOM     26  N   UNL     1     -10.208  11.201  65.732  0.00  0.00    -0.189 NA
ATOM     27  O   UNL     1     -11.595  13.090  65.936  0.00  0.00    -0.249 OA
BRANCH  26  28
ATOM     28  C   UNL     1     -10.639  10.929  64.383  0.00  0.00    +0.097 C 
ATOM     29  C   UNL     1     -10.036  11.606  63.215  0.00  0.00    +0.023 C 
ATOM     30  C   UNL     1      -9.604  10.198  63.531  0.00  0.00    +0.023 C 
ENDBRANCH  26  28
ENDBRANCH  21  24
ENDBRANCH  16  17
ENDBRANCH   9  16
TORSDOF 6
ENDMDL
MODEL 5
REMARK VINA RESULT:      -7.0      4.391      9.020
REMARK  Name = 
REMARK  6 active torsions:
REMARK  status: ('A' for Active; 'I' for Inactive)
REMARK    1  A    between atoms: O_2  and  C_3
REMARK    2  A    between atoms: C_9  and  O_10
REMARK    3  A    between atoms: O_10  and  C_11
REMARK    4  A    between atoms: C_14  and  N_15
REMARK    5  A    between atoms: N_18  and  C_19
REMARK    6  A    between atoms: C_27  and  C_28
REMARK                            x       y       z     vdW  Elec       q    Type
REMARK                         _______ _______ _______ _____ _____    ______ ____
ROOT
ATOM      1  C   UNL     1      -5.961  17.946  67.935  0.00  0.00    +0.145 A 
ATOM      2  C   UNL     1      -6.383  16.762  67.373  0.00  0.00    +0.091 A 
ATOM      3  C   UNL     1      -7.620  16.739  66.740  0.00  0.00    +0.012 A 
ATOM      4  C   UNL     1      -8.388  17.880  66.594  0.00  0.00    +0.053 A 
ATOM      5  C   UNL     1      -7.873  19.104  67.001  0.00  0.00    +0.087 A 
ATOM      6  N   UNL     1      -8.715  20.149  67.184  0.00  0.00    -0.244 NA
ATOM      7  C   UNL     1     -10.058  19.978  67.216  0.00  0.00    +0.102 A 
ATOM      8  C   UNL     1     -10.570  18.782  66.730  0.00  0.00    +0.058 A 
ATOM      9  C   UNL     1      -9.753  17.725  66.382  0.00  0.00    +0.148 A 
ATOM     10  C   UNL     1      -6.576  19.109  67.492  0.00  0.00    +0.056 A 
ENDROOT
BRANCH   2  11
ATOM     11  C   UNL     1      -5.850  15.516  67.937  0.00  0.00    +0.287 C 
ATOM     12  O   UNL     1      -4.887  14.992  67.340  0.00  0.00    -0.267 OA
ATOM     13  N   UNL     1      -6.469  14.869  69.051  0.00  0.00    -0.084 NA
ENDBRANCH   2  11
BRANCH   1  15
ATOM     14  C   UNL     1      -5.191  18.292  70.210  0.00  0.00    +0.252 C 
ATOM     15  O   UNL     1      -4.911  18.033  68.844  0.00  0.00    -0.471 OA
ENDBRANCH   1  15
BRANCH   9  16
ATOM     16  O   UNL     1     -10.124  16.762  65.445  0.00  0.00    -0.453 OA
BRANCH  16  17
ATOM     17  C   UNL     1     -10.309  15.461  65.924  0.00  0.00    +0.146 A 
ATOM     18  C   UNL     1     -10.487  14.467  64.969  0.00  0.00    +0.050 A 
ATOM     19  C   UNL     1     -11.263  13.339  65.208  0.00  0.00    +0.076 A 
ATOM     20 CL   UNL     1     -11.811  12.274  63.947  0.00  0.00    -0.081 Cl
ATOM     21  C   UNL     1     -11.689  13.121  66.492  0.00  0.00    +0.086 A 
ATOM     22  C   UNL     1     -11.674  14.156  67.419  0.00  0.00    +0.021 A 
ATOM     23  C   UNL     1     -11.091  15.346  67.066  0.00  0.00    +0.039 A 
BRANCH  21  24
ATOM     24  N   UNL     1     -11.913  11.779  66.943  0.00  0.00    -0.160 NA
ATOM     25  C   UNL     1     -11.060  11.158  67.913  0.00  0.00    +0.343 C 
ATOM     26  N   UNL     1     -11.574  10.534  69.094  0.00  0.00    -0.189 NA
ATOM     27  O   UNL     1      -9.829  11.444  67.805  0.00  0.00    -0.249 OA
BRANCH  26  28
ATOM     28  C   UNL     1     -10.673   9.784  69.933  0.00  0.00    +0.097 C 
ATOM     29  C   UNL     1     -11.037   9.376  71.307  0.00  0.00    +0.023 C 
ATOM     30  C   UNL     1     -11.121   8.350  70.207  0.00  0.00    +0.023 C 
ENDBRANCH  26  28
ENDBRANCH  21  24
ENDBRANCH  16  17
ENDBRANCH   9  16
TORSDOF 6
ENDMDL
MODEL 6
REMARK VINA RESULT:      -6.9      3.639      8.551
REMARK  Name = 
REMARK  6 active torsions:
REMARK  status: ('A' for Active; 'I' for Inactive)
REMARK    1  A    between atoms: O_2  and  C_3
REMARK    2  A    between atoms: C_9  and  O_10
REMARK    3  A    between atoms: O_10  and  C_11
REMARK    4  A    between atoms: C_14  and  N_15
REMARK    5  A    between atoms: N_18  and  C_19
REMARK    6  A    between atoms: C_27  and  C_28
REMARK                            x       y       z     vdW  Elec       q    Type
REMARK                         _______ _______ _______ _____ _____    ______ ____
ROOT
ATOM      1  C   UNL     1      -3.694  20.058  68.831  0.00  0.00    +0.145 A 
ATOM      2  C   UNL     1      -4.615  19.943  69.846  0.00  0.00    +0.091 A 
ATOM      3  C   UNL     1      -5.926  19.622  69.512  0.00  0.00    +0.012 A 
ATOM      4  C   UNL     1      -6.300  19.340  68.210  0.00  0.00    +0.053 A 
ATOM      5  C   UNL     1      -5.327  19.279  67.221  0.00  0.00    +0.087 A 
ATOM      6  N   UNL     1      -5.700  19.348  65.920  0.00  0.00    -0.244 NA
ATOM      7  C   UNL     1      -6.954  19.714  65.562  0.00  0.00    +0.102 A 
ATOM      8  C   UNL     1      -7.939  19.693  66.542  0.00  0.00    +0.058 A 
ATOM      9  C   UNL     1      -7.641  19.478  67.873  0.00  0.00    +0.148 A 
ATOM     10  C   UNL     1      -4.011  19.459  67.619  0.00  0.00    +0.056 A 
ENDROOT
BRANCH   2  11
ATOM     11  C   UNL     1      -4.362  20.696  71.081  0.00  0.00    +0.287 C 
ATOM     12  O   UNL     1      -4.565  21.926  71.045  0.00  0.00    -0.267 OA
ATOM     13  N   UNL     1      -3.803  20.072  72.241  0.00  0.00    -0.084 NA
ENDBRANCH   2  11
BRANCH   1  15
ATOM     14  C   UNL     1      -1.956  21.518  67.971  0.00  0.00    +0.252 C 
ATOM     15  O   UNL     1      -2.450  20.661  68.988  0.00  0.00    -0.471 OA
ENDBRANCH   1  15
BRANCH   9  16
ATOM     16  O   UNL     1      -8.559  18.940  68.773  0.00  0.00    -0.453 OA
BRANCH  16  17
ATOM     17  C   UNL     1      -9.198  17.757  68.385  0.00  0.00    +0.146 A 
ATOM     18  C   UNL     1     -10.441  17.507  68.951  0.00  0.00    +0.050 A 
ATOM     19  C   UNL     1     -10.902  16.218  69.190  0.00  0.00    +0.076 A 
ATOM     20 CL   UNL     1     -12.260  15.866  70.217  0.00  0.00    -0.081 Cl
ATOM     21  C   UNL     1     -10.183  15.178  68.661  0.00  0.00    +0.086 A 
ATOM     22  C   UNL     1      -8.874  15.375  68.242  0.00  0.00    +0.021 A 
ATOM     23  C   UNL     1      -8.372  16.651  68.232  0.00  0.00    +0.039 A 
BRANCH  21  24
ATOM     24  N   UNL     1     -10.856  13.961  68.312  0.00  0.00    -0.160 NA
ATOM     25  C   UNL     1     -11.241  13.674  66.962  0.00  0.00    +0.343 C 
ATOM     26  N   UNL     1     -10.892  12.447  66.313  0.00  0.00    -0.189 NA
ATOM     27  O   UNL     1     -11.653  14.673  66.298  0.00  0.00    -0.249 OA
BRANCH  26  28
ATOM     28  C   UNL     1     -11.459  12.159  65.020  0.00  0.00    +0.097 C 
ATOM     29  C   UNL     1     -10.754  12.489  63.762  0.00  0.00    +0.023 C 
ATOM     30  C   UNL     1     -10.729  11.063  64.247  0.00  0.00    +0.023 C 
ENDBRANCH  26  28
ENDBRANCH  21  24
ENDBRANCH  16  17
ENDBRANCH   9  16
TORSDOF 6
ENDMDL
MODEL 7
REMARK VINA RESULT:      -6.9      2.882     10.180
REMARK  Name = 
REMARK  6 active torsions:
REMARK  status: ('A' for Active; 'I' for Inactive)
REMARK    1  A    between atoms: O_2  and  C_3
REMARK    2  A    between atoms: C_9  and  O_10
REMARK    3  A    between atoms: O_10  and  C_11
REMARK    4  A    between atoms: C_14  and  N_15
REMARK    5  A    between atoms: N_18  and  C_19
REMARK    6  A    between atoms: C_27  and  C_28
REMARK                            x       y       z     vdW  Elec       q    Type
REMARK                         _______ _______ _______ _____ _____    ______ ____
ROOT
ATOM      1  C   UNL     1      -4.075  21.125  64.480  0.00  0.00    +0.145 A 
ATOM      2  C   UNL     1      -5.263  20.871  63.834  0.00  0.00    +0.091 A 
ATOM      3  C   UNL     1      -6.117  19.919  64.379  0.00  0.00    +0.012 A 
ATOM      4  C   UNL     1      -5.841  19.292  65.581  0.00  0.00    +0.053 A 
ATOM      5  C   UNL     1      -4.732  19.689  66.316  0.00  0.00    +0.087 A 
ATOM      6  N   UNL     1      -4.260  18.878  67.294  0.00  0.00    -0.244 NA
ATOM      7  C   UNL     1      -4.682  17.596  67.414  0.00  0.00    +0.102 A 
ATOM      8  C   UNL     1      -5.839  17.230  66.740  0.00  0.00    +0.058 A 
ATOM      9  C   UNL     1      -6.457  18.074  65.837  0.00  0.00    +0.148 A 
ATOM     10  C   UNL     1      -3.986  20.744  65.812  0.00  0.00    +0.056 A 
ENDROOT
BRANCH   2  11
ATOM     11  C   UNL     1      -5.320  21.132  62.390  0.00  0.00    +0.287 C 
ATOM     12  O   UNL     1      -5.666  22.277  62.036  0.00  0.00    -0.267 OA
ATOM     13  N   UNL     1      -5.098  20.096  61.429  0.00  0.00    -0.084 NA
ENDBRANCH   2  11
BRANCH   1  15
ATOM     14  C   UNL     1      -2.687  23.112  64.353  0.00  0.00    +0.252 C 
ATOM     15  O   UNL     1      -3.015  21.810  63.895  0.00  0.00    -0.471 OA
ENDBRANCH   1  15
BRANCH   9  16
ATOM     16  O   UNL     1      -7.820  18.001  65.550  0.00  0.00    -0.453 OA
BRANCH  16  17
ATOM     17  C   UNL     1      -8.633  17.403  66.518  0.00  0.00    +0.146 A 
ATOM     18  C   UNL     1      -9.275  16.227  66.150  0.00  0.00    +0.050 A 
ATOM     19  C   UNL     1     -10.512  15.864  66.669  0.00  0.00    +0.076 A 
ATOM     20 CL   UNL     1     -11.508  14.619  65.976  0.00  0.00    -0.081 Cl
ATOM     21  C   UNL     1     -11.000  16.596  67.720  0.00  0.00    +0.086 A 
ATOM     22  C   UNL     1     -10.478  17.852  68.000  0.00  0.00    +0.021 A 
ATOM     23  C   UNL     1      -9.377  18.276  67.302  0.00  0.00    +0.039 A 
BRANCH  21  24
ATOM     24  N   UNL     1     -11.867  15.968  68.675  0.00  0.00    -0.160 NA
ATOM     25  C   UNL     1     -11.438  15.688  70.012  0.00  0.00    +0.343 C 
ATOM     26  N   UNL     1     -12.189  16.102  71.158  0.00  0.00    -0.189 NA
ATOM     27  O   UNL     1     -10.231  15.312  70.120  0.00  0.00    -0.249 OA
BRANCH  26  28
ATOM     28  C   UNL     1     -11.784  15.637  72.461  0.00  0.00    +0.097 C 
ATOM     29  C   UNL     1     -12.407  16.142  73.703  0.00  0.00    +0.023 C 
ATOM     30  C   UNL     1     -12.836  14.796  73.180  0.00  0.00    +0.023 C 
ENDBRANCH  26  28
ENDBRANCH  21  24
ENDBRANCH  16  17
ENDBRANCH   9  16
TORSDOF 6
ENDMDL
MODEL 8
REMARK VINA RESULT:      -6.8      3.458      9.192
REMARK  Name = 
REMARK  6 active torsions:
REMARK  status: ('A' for Active; 'I' for Inactive)
REMARK    1  A    between atoms: O_2  and  C_3
REMARK    2  A    between atoms: C_9  and  O_10
REMARK    3  A    between atoms: O_10  and  C_11
REMARK    4  A    between atoms: C_14  and  N_15
REMARK    5  A    between atoms: N_18  and  C_19
REMARK    6  A    between atoms: C_27  and  C_28
REMARK                            x       y       z     vdW  Elec       q    Type
REMARK                         _______ _______ _______ _____ _____    ______ ____
ROOT
ATOM      1  C   UNL     1      -4.724  21.140  65.399  0.00  0.00    +0.145 A 
ATOM      2  C   UNL     1      -5.861  20.685  64.770  0.00  0.00    +0.091 A 
ATOM      3  C   UNL     1      -6.933  20.285  65.559  0.00  0.00    +0.012 A 
ATOM      4  C   UNL     1      -6.913  20.408  66.936  0.00  0.00    +0.053 A 
ATOM      5  C   UNL     1      -5.837  21.038  67.548  0.00  0.00    +0.087 A 
ATOM      6  N   UNL     1      -5.636  20.865  68.877  0.00  0.00    -0.244 NA
ATOM      7  C   UNL     1      -6.302  19.914  69.575  0.00  0.00    +0.102 A 
ATOM      8  C   UNL     1      -7.427  19.349  68.988  0.00  0.00    +0.058 A 
ATOM      9  C   UNL     1      -7.772  19.604  67.675  0.00  0.00    +0.148 A 
ATOM     10  C   UNL     1      -4.855  21.556  66.716  0.00  0.00    +0.056 A 
ENDROOT
BRANCH   2  11
ATOM     11  C   UNL     1      -5.709  20.104  63.430  0.00  0.00    +0.287 C 
ATOM     12  O   UNL     1      -5.371  18.904  63.370  0.00  0.00    -0.267 OA
ATOM     13  N   UNL     1      -5.832  20.897  62.247  0.00  0.00    -0.084 NA
ENDBRANCH   2  11
BRANCH   1  15
ATOM     14  C   UNL     1      -2.389  20.511  65.203  0.00  0.00    +0.252 C 
ATOM     15  O   UNL     1      -3.496  21.278  64.759  0.00  0.00    -0.471 OA
ENDBRANCH   1  15
BRANCH   9  16
ATOM     16  O   UNL     1      -9.084  19.516  67.211  0.00  0.00    -0.453 OA
BRANCH  16  17
ATOM     17  C   UNL     1      -9.617  18.229  67.081  0.00  0.00    +0.146 A 
ATOM     18  C   UNL     1     -10.510  17.824  68.066  0.00  0.00    +0.050 A 
ATOM     19  C   UNL     1     -10.634  16.495  68.453  0.00  0.00    +0.076 A 
ATOM     20 CL   UNL     1     -11.446  15.997  69.908  0.00  0.00    -0.081 Cl
ATOM     21  C   UNL     1      -9.998  15.549  67.691  0.00  0.00    +0.086 A 
ATOM     22  C   UNL     1      -8.984  15.921  66.819  0.00  0.00    +0.021 A 
ATOM     23  C   UNL     1      -8.736  17.256  66.629  0.00  0.00    +0.039 A 
BRANCH  21  24
ATOM     24  N   UNL     1     -10.544  14.226  67.610  0.00  0.00    -0.160 NA
ATOM     25  C   UNL     1     -11.333  13.803  66.492  0.00  0.00    +0.343 C 
ATOM     26  N   UNL     1     -11.044  12.607  65.762  0.00  0.00    -0.189 NA
ATOM     27  O   UNL     1     -12.112  14.688  66.021  0.00  0.00    -0.249 OA
BRANCH  26  28
ATOM     28  C   UNL     1     -11.980  12.159  64.761  0.00  0.00    +0.097 C 
ATOM     29  C   UNL     1     -11.996  12.722  63.393  0.00  0.00    +0.023 C 
ATOM     30  C   UNL     1     -11.343  11.382  63.611  0.00  0.00    +0.023 C 
ENDBRANCH  26  28
ENDBRANCH  21  24
ENDBRANCH  16  17
ENDBRANCH   9  16
TORSDOF 6
ENDMDL
MODEL 9
REMARK VINA RESULT:      -6.8      3.670      8.618
REMARK  Name = 
REMARK  6 active torsions:
REMARK  status: ('A' for Active; 'I' for Inactive)
REMARK    1  A    between atoms: O_2  and  C_3
REMARK    2  A    between atoms: C_9  and  O_10
REMARK    3  A    between atoms: O_10  and  C_11
REMARK    4  A    between atoms: C_14  and  N_15
REMARK    5  A    between atoms: N_18  and  C_19
REMARK    6  A    between atoms: C_27  and  C_28
REMARK                            x       y       z     vdW  Elec       q    Type
REMARK                         _______ _______ _______ _____ _____    ______ ____
ROOT
ATOM      1  C   UNL     1      -5.984  19.739  68.065  0.00  0.00    +0.145 A 
ATOM      2  C   UNL     1      -6.476  19.112  69.186  0.00  0.00    +0.091 A 
ATOM      3  C   UNL     1      -7.786  18.649  69.160  0.00  0.00    +0.012 A 
ATOM      4  C   UNL     1      -8.566  18.729  68.021  0.00  0.00    +0.053 A 
ATOM      5  C   UNL     1      -8.002  19.195  66.841  0.00  0.00    +0.087 A 
ATOM      6  N   UNL     1      -8.813  19.598  65.833  0.00  0.00    -0.244 NA
ATOM      7  C   UNL     1     -10.140  19.788  66.026  0.00  0.00    +0.102 A 
ATOM      8  C   UNL     1     -10.712  19.247  67.170  0.00  0.00    +0.058 A 
ATOM      9  C   UNL     1      -9.947  18.683  68.172  0.00  0.00    +0.148 A 
ATOM     10  C   UNL     1      -6.651  19.509  66.869  0.00  0.00    +0.056 A 
ENDROOT
BRANCH   2  11
ATOM     11  C   UNL     1      -5.873  19.463  70.479  0.00  0.00    +0.287 C 
ATOM     12  O   UNL     1      -6.180  20.570  70.964  0.00  0.00    -0.267 OA
ATOM     13  N   UNL     1      -4.894  18.629  71.104  0.00  0.00    -0.084 NA
ENDBRANCH   2  11
BRANCH   1  15
ATOM     14  C   UNL     1      -3.643  19.982  67.474  0.00  0.00    +0.252 C 
ATOM     15  O   UNL     1      -4.823  20.506  68.060  0.00  0.00    -0.471 OA
ENDBRANCH   1  15
BRANCH   9  16
ATOM     16  O   UNL     1     -10.439  17.704  69.034  0.00  0.00    -0.453 OA
BRANCH  16  17
ATOM     17  C   UNL     1     -10.518  16.403  68.525  0.00  0.00    +0.146 A 
ATOM     18  C   UNL     1     -10.450  16.271  67.143  0.00  0.00    +0.050 A 
ATOM     19  C   UNL     1     -11.102  15.251  66.463  0.00  0.00    +0.076 A 
ATOM     20 CL   UNL     1     -11.352  15.259  64.742  0.00  0.00    -0.081 Cl
ATOM     21  C   UNL     1     -11.654  14.241  67.207  0.00  0.00    +0.086 A 
ATOM     22  C   UNL     1     -11.883  14.419  68.566  0.00  0.00    +0.021 A 
ATOM     23  C   UNL     1     -11.415  15.559  69.167  0.00  0.00    +0.039 A 
BRANCH  21  24
ATOM     24  N   UNL     1     -11.762  12.927  66.645  0.00  0.00    -0.160 NA
ATOM     25  C   UNL     1     -10.817  11.895  66.953  0.00  0.00    +0.343 C 
ATOM     26  N   UNL     1     -11.221  10.602  67.413  0.00  0.00    -0.189 NA
ATOM     27  O   UNL     1      -9.615  12.286  67.067  0.00  0.00    -0.249 OA
BRANCH  26  28
ATOM     28  C   UNL     1     -10.227   9.566  67.538  0.00  0.00    +0.097 C 
ATOM     29  C   UNL     1     -10.410   8.407  68.439  0.00  0.00    +0.023 C 
ATOM     30  C   UNL     1     -10.653   8.217  66.964  0.00  0.00    +0.023 C 
ENDBRANCH  26  28
ENDBRANCH  21  24
ENDBRANCH  16  17
ENDBRANCH   9  16
TORSDOF 6
ENDMDL
