MODEL 1
REMARK VINA RESULT:      -6.5      0.000      0.000
REMARK  Name = 
REMARK  2 active torsions:
REMARK  status: ('A' for Active; 'I' for Inactive)
REMARK    1  A    between atoms: N1_4  and  C1*_5
REMARK    2  A    between atoms: C4*_9  and  C5*_10
REMARK                            x       y       z     vdW  Elec       q    Type
REMARK                         _______ _______ _______ _____ _____    ______ ____
ROOT
ATOM      1  C5M   T A   1     -10.741  11.747  65.416  0.00  0.00    +0.038 C 
ATOM      2  C5    T A   1     -11.039  12.930  65.162  0.00  0.00    +0.053 A 
ATOM      3  C4    T A   1     -12.230  13.298  64.541  0.00  0.00    +0.280 A 
ATOM      4  O4    T A   1     -13.189  12.472  64.635  0.00  0.00    -0.265 OA
ATOM      5  N3    T A   1     -12.418  14.572  64.113  0.00  0.00    -0.153 NA
ATOM      6  C2    T A   1     -11.614  15.575  64.548  0.00  0.00    +0.354 A 
ATOM      7  O2    T A   1     -11.565  16.674  63.919  0.00  0.00    -0.244 OA
ATOM      8  N1    T A   1     -10.634  15.258  65.316  0.00  0.00    -0.256 N 
ATOM      9  C6    T A   1     -10.191  13.987  65.476  0.00  0.00    +0.082 A 
ENDROOT
BRANCH   8  10
ATOM     10  C1*   T A   1      -9.544  16.304  65.785  0.00  0.00    +0.211 C 
ATOM     11  O4*   T A   1     -10.469  17.077  66.724  0.00  0.00    -0.332 OA
ATOM     12  C4*   T A   1      -9.197  17.750  67.176  0.00  0.00    +0.180 C 
ATOM     13  C3*   T A   1      -8.834  16.406  68.179  0.00  0.00    +0.186 C 
ATOM     14  O3*   T A   1      -7.365  16.512  67.843  0.00  0.00    -0.220 OA
ATOM     15  C2*   T A   1      -9.089  15.303  67.012  0.00  0.00    +0.089 C 
BRANCH  12  16
ATOM     16  C5*   T A   1      -9.939  18.505  68.427  0.00  0.00    +0.214 C 
ATOM     17  O5*   T A   1     -10.872  19.300  67.739  0.00  0.00    -0.218 OA
ENDBRANCH  12  16
ENDBRANCH   8  10
TORSDOF 2
ENDMDL
MODEL 2
REMARK VINA RESULT:      -6.0      2.433      5.617
REMARK  Name = 
REMARK  2 active torsions:
REMARK  status: ('A' for Active; 'I' for Inactive)
REMARK    1  A    between atoms: N1_4  and  C1*_5
REMARK    2  A    between atoms: C4*_9  and  C5*_10
REMARK                            x       y       z     vdW  Elec       q    Type
REMARK                         _______ _______ _______ _____ _____    ______ ____
ROOT
ATOM      1  C5M   T A   1      -9.834  16.113  65.891  0.00  0.00    +0.038 C 
ATOM      2  C5    T A   1     -10.588  15.242  65.418  0.00  0.00    +0.053 A 
ATOM      3  C4    T A   1     -11.628  15.530  64.538  0.00  0.00    +0.280 A 
ATOM      4  O4    T A   1     -11.525  16.615  63.887  0.00  0.00    -0.265 OA
ATOM      5  N3    T A   1     -12.536  14.576  64.209  0.00  0.00    -0.153 NA
ATOM      6  C2    T A   1     -12.287  13.267  64.459  0.00  0.00    +0.354 A 
ATOM      7  O2    T A   1     -13.234  12.426  64.466  0.00  0.00    -0.244 OA
ATOM      8  N1    T A   1     -11.199  12.978  65.081  0.00  0.00    -0.256 N 
ATOM      9  C6    T A   1     -10.452  13.895  65.743  0.00  0.00    +0.082 A 
ENDROOT
BRANCH   8  10
ATOM     10  C1*   T A   1     -10.851  11.510  65.555  0.00  0.00    +0.211 C 
ATOM     11  O4*   T A   1     -10.181  11.083  64.249  0.00  0.00    -0.332 OA
ATOM     12  C4*   T A   1      -9.756   9.872  65.041  0.00  0.00    +0.180 C 
ATOM     13  C3*   T A   1      -8.471  10.769  65.738  0.00  0.00    +0.186 C 
ATOM     14  O3*   T A   1      -8.680  10.092  67.072  0.00  0.00    -0.220 OA
ATOM     15  C2*   T A   1      -9.409  12.030  66.157  0.00  0.00    +0.089 C 
BRANCH  12  16
ATOM     16  C5*   T A   1      -8.762   9.338  63.853  0.00  0.00    +0.214 C 
ATOM     17  O5*   T A   1      -9.491   9.712  62.711  0.00  0.00    -0.218 OA
ENDBRANCH  12  16
ENDBRANCH   8  10
TORSDOF 2
ENDMDL
MODEL 3
REMARK VINA RESULT:      -6.0      4.066      5.187
REMARK  Name = 
REMARK  2 active torsions:
REMARK  status: ('A' for Active; 'I' for Inactive)
REMARK    1  A    between atoms: N1_4  and  C1*_5
REMARK    2  A    between atoms: C4*_9  and  C5*_10
REMARK                            x       y       z     vdW  Elec       q    Type
REMARK                         _______ _______ _______ _____ _____    ______ ____
ROOT
ATOM      1  C5M   T A   1     -12.126  16.238  72.965  0.00  0.00    +0.038 C 
ATOM      2  C5    T A   1     -12.157  15.469  71.986  0.00  0.00    +0.053 A 
ATOM      3  C4    T A   1     -12.793  14.230  72.010  0.00  0.00    +0.280 A 
ATOM      4  O4    T A   1     -13.705  14.086  72.882  0.00  0.00    -0.265 OA
ATOM      5  N3    T A   1     -12.631  13.353  70.987  0.00  0.00    -0.153 NA
ATOM      6  C2    T A   1     -12.125  13.762  69.797  0.00  0.00    +0.354 A 
ATOM      7  O2    T A   1     -11.667  12.916  68.972  0.00  0.00    -0.244 OA
ATOM      8  N1    T A   1     -11.741  14.985  69.704  0.00  0.00    -0.256 N 
ATOM      9  C6    T A   1     -11.544  15.789  70.778  0.00  0.00    +0.082 A 
ENDROOT
BRANCH   8  10
ATOM     10  C1*   T A   1     -11.010  15.556  68.424  0.00  0.00    +0.211 C 
ATOM     11  O4*   T A   1     -11.163  17.029  68.805  0.00  0.00    -0.332 OA
ATOM     12  C4*   T A   1     -10.218  17.267  67.654  0.00  0.00    +0.180 C 
ATOM     13  C3*   T A   1      -8.885  16.853  68.651  0.00  0.00    +0.186 C 
ATOM     14  O3*   T A   1      -8.210  16.138  67.505  0.00  0.00    -0.220 OA
ATOM     15  C2*   T A   1      -9.558  15.478  69.198  0.00  0.00    +0.089 C 
BRANCH  12  16
ATOM     16  C5*   T A   1     -10.028  18.851  68.027  0.00  0.00    +0.214 C 
ATOM     17  O5*   T A   1     -11.145  19.410  67.383  0.00  0.00    -0.218 OA
ENDBRANCH  12  16
ENDBRANCH   8  10
TORSDOF 2
ENDMDL
MODEL 4
REMARK VINA RESULT:      -6.0      1.860      5.219
REMARK  Name = 
REMARK  2 active torsions:
REMARK  status: ('A' for Active; 'I' for Inactive)
REMARK    1  A    between atoms: N1_4  and  C1*_5
REMARK    2  A    between atoms: C4*_9  and  C5*_10
REMARK                            x       y       z     vdW  Elec       q    Type
REMARK                         _______ _______ _______ _____ _____    ______ ____
ROOT
ATOM      1  C5M   T A   1      -9.840  17.123  68.206  0.00  0.00    +0.038 C 
ATOM      2  C5    T A   1     -10.300  16.833  67.086  0.00  0.00    +0.053 A 
ATOM      3  C4    T A   1     -10.286  17.712  66.005  0.00  0.00    +0.280 A 
ATOM      4  O4    T A   1      -9.417  18.636  66.047  0.00  0.00    -0.265 OA
ATOM      5  N3    T A   1     -10.971  17.419  64.871  0.00  0.00    -0.153 NA
ATOM      6  C2    T A   1     -11.412  16.158  64.634  0.00  0.00    +0.354 A 
ATOM      7  O2    T A   1     -12.314  15.949  63.769  0.00  0.00    -0.244 OA
ATOM      8  N1    T A   1     -11.219  15.280  65.552  0.00  0.00    -0.256 N 
ATOM      9  C6    T A   1     -10.877  15.594  66.825  0.00  0.00    +0.082 A 
ENDROOT
BRANCH   8  10
ATOM     10  C1*   T A   1     -11.799  13.811  65.464  0.00  0.00    +0.211 C 
ATOM     11  O4*   T A   1     -10.654  13.244  64.626  0.00  0.00    -0.332 OA
ATOM     12  C4*   T A   1     -11.295  11.913  64.926  0.00  0.00    +0.180 C 
ATOM     13  C3*   T A   1     -10.553  11.894  66.472  0.00  0.00    +0.186 C 
ATOM     14  O3*   T A   1     -11.789  11.287  67.093  0.00  0.00    -0.220 OA
ATOM     15  C2*   T A   1     -11.021  13.403  66.856  0.00  0.00    +0.089 C 
BRANCH  12  16
ATOM     16  C5*   T A   1     -10.042  11.069  64.294  0.00  0.00    +0.214 C 
ATOM     17  O5*   T A   1      -9.934  11.667  63.026  0.00  0.00    -0.218 OA
ENDBRANCH  12  16
ENDBRANCH   8  10
TORSDOF 2
ENDMDL
MODEL 5
REMARK VINA RESULT:      -6.0      1.754      1.995
REMARK  Name = 
REMARK  2 active torsions:
REMARK  status: ('A' for Active; 'I' for Inactive)
REMARK    1  A    between atoms: N1_4  and  C1*_5
REMARK    2  A    between atoms: C4*_9  and  C5*_10
REMARK                            x       y       z     vdW  Elec       q    Type
REMARK                         _______ _______ _______ _____ _____    ______ ____
ROOT
ATOM      1  C5M   T A   1      -9.118  11.547  67.352  0.00  0.00    +0.038 C 
ATOM      2  C5    T A   1     -10.039  12.227  66.862  0.00  0.00    +0.053 A 
ATOM      3  C4    T A   1     -11.338  11.750  66.705  0.00  0.00    +0.280 A 
ATOM      4  O4    T A   1     -11.676  10.787  67.461  0.00  0.00    -0.265 OA
ATOM      5  N3    T A   1     -12.250  12.458  65.991  0.00  0.00    -0.153 NA
ATOM      6  C2    T A   1     -12.032  13.761  65.687  0.00  0.00    +0.354 A 
ATOM      7  O2    T A   1     -12.694  14.322  64.764  0.00  0.00    -0.244 OA
ATOM      8  N1    T A   1     -10.905  14.272  66.038  0.00  0.00    -0.256 N 
ATOM      9  C6    T A   1      -9.836  13.531  66.419  0.00  0.00    +0.082 A 
ENDROOT
BRANCH   8  10
ATOM     10  C1*   T A   1     -10.467  15.735  65.630  0.00  0.00    +0.211 C 
ATOM     11  O4*   T A   1     -10.896  16.394  66.941  0.00  0.00    -0.332 OA
ATOM     12  C4*   T A   1     -10.163  17.596  66.400  0.00  0.00    +0.180 C 
ATOM     13  C3*   T A   1      -8.668  16.919  66.899  0.00  0.00    +0.186 C 
ATOM     14  O3*   T A   1      -7.986  17.428  65.651  0.00  0.00    -0.220 OA
ATOM     15  C2*   T A   1      -8.956  15.466  66.227  0.00  0.00    +0.089 C 
BRANCH  12  16
ATOM     16  C5*   T A   1     -10.285  18.414  67.814  0.00  0.00    +0.214 C 
ATOM     17  O5*   T A   1     -11.087  19.500  67.423  0.00  0.00    -0.218 OA
ENDBRANCH  12  16
ENDBRANCH   8  10
TORSDOF 2
ENDMDL
MODEL 6
REMARK VINA RESULT:      -5.9      4.616      6.223
REMARK  Name = 
REMARK  2 active torsions:
REMARK  status: ('A' for Active; 'I' for Inactive)
REMARK    1  A    between atoms: N1_4  and  C1*_5
REMARK    2  A    between atoms: C4*_9  and  C5*_10
REMARK                            x       y       z     vdW  Elec       q    Type
REMARK                         _______ _______ _______ _____ _____    ______ ____
ROOT
ATOM      1  C5M   T A   1     -12.977  15.499  71.340  0.00  0.00    +0.038 C 
ATOM      2  C5    T A   1     -12.778  14.305  71.050  0.00  0.00    +0.053 A 
ATOM      3  C4    T A   1     -13.240  13.245  71.827  0.00  0.00    +0.280 A 
ATOM      4  O4    T A   1     -14.229  13.495  72.583  0.00  0.00    -0.265 OA
ATOM      5  N3    T A   1     -12.831  11.976  71.574  0.00  0.00    -0.153 NA
ATOM      6  C2    T A   1     -12.235  11.662  70.397  0.00  0.00    +0.354 A 
ATOM      7  O2    T A   1     -11.565  10.592  70.284  0.00  0.00    -0.244 OA
ATOM      8  N1    T A   1     -12.010  12.621  69.571  0.00  0.00    -0.256 N 
ATOM      9  C6    T A   1     -12.063  13.931  69.916  0.00  0.00    +0.082 A 
ENDROOT
BRANCH   8  10
ATOM     10  C1*   T A   1     -11.203  12.419  68.226  0.00  0.00    +0.211 C 
ATOM     11  O4*   T A   1     -12.341  12.847  67.300  0.00  0.00    -0.332 OA
ATOM     12  C4*   T A   1     -11.278  12.820  66.231  0.00  0.00    +0.180 C 
ATOM     13  C3*   T A   1     -10.723  14.364  66.731  0.00  0.00    +0.186 C 
ATOM     14  O3*   T A   1      -9.287  13.959  66.499  0.00  0.00    -0.220 OA
ATOM     15  C2*   T A   1     -10.649  13.968  68.307  0.00  0.00    +0.089 C 
BRANCH  12  16
ATOM     16  C5*   T A   1     -12.258  13.514  65.117  0.00  0.00    +0.214 C 
ATOM     17  O5*   T A   1     -13.076  12.424  64.770  0.00  0.00    -0.218 OA
ENDBRANCH  12  16
ENDBRANCH   8  10
TORSDOF 2
ENDMDL
MODEL 7
REMARK VINA RESULT:      -5.9      2.179      5.374
REMARK  Name = 
REMARK  2 active torsions:
REMARK  status: ('A' for Active; 'I' for Inactive)
REMARK    1  A    between atoms: N1_4  and  C1*_5
REMARK    2  A    between atoms: C4*_9  and  C5*_10
REMARK                            x       y       z     vdW  Elec       q    Type
REMARK                         _______ _______ _______ _____ _____    ______ ____
ROOT
ATOM      1  C5M   T A   1      -7.957  16.706  66.295  0.00  0.00    +0.038 C 
ATOM      2  C5    T A   1      -9.012  16.645  66.953  0.00  0.00    +0.053 A 
ATOM      3  C4    T A   1      -9.380  17.604  67.893  0.00  0.00    +0.280 A 
ATOM      4  O4    T A   1      -8.855  18.752  67.757  0.00  0.00    -0.265 OA
ATOM      5  N3    T A   1     -10.437  17.390  68.718  0.00  0.00    -0.153 NA
ATOM      6  C2    T A   1     -11.339  16.414  68.449  0.00  0.00    +0.354 A 
ATOM      7  O2    T A   1     -12.117  15.994  69.357  0.00  0.00    -0.244 OA
ATOM      8  N1    T A   1     -11.113  15.661  67.432  0.00  0.00    -0.256 N 
ATOM      9  C6    T A   1      -9.914  15.595  66.804  0.00  0.00    +0.082 A 
ENDROOT
BRANCH   8  10
ATOM     10  C1*   T A   1     -12.007  14.404  67.085  0.00  0.00    +0.211 C 
ATOM     11  O4*   T A   1     -11.715  14.419  65.584  0.00  0.00    -0.332 OA
ATOM     12  C4*   T A   1     -12.407  13.079  65.591  0.00  0.00    +0.180 C 
ATOM     13  C3*   T A   1     -10.970  12.330  66.151  0.00  0.00    +0.186 C 
ATOM     14  O3*   T A   1     -11.763  11.410  67.050  0.00  0.00    -0.220 OA
ATOM     15  C2*   T A   1     -10.729  13.401  67.352  0.00  0.00    +0.089 C 
BRANCH  12  16
ATOM     16  C5*   T A   1     -11.989  12.760  64.039  0.00  0.00    +0.214 C 
ATOM     17  O5*   T A   1     -12.620  13.823  63.371  0.00  0.00    -0.218 OA
ENDBRANCH  12  16
ENDBRANCH   8  10
TORSDOF 2
ENDMDL
MODEL 8
REMARK VINA RESULT:      -5.9      2.328      5.447
REMARK  Name = 
REMARK  2 active torsions:
REMARK  status: ('A' for Active; 'I' for Inactive)
REMARK    1  A    between atoms: N1_4  and  C1*_5
REMARK    2  A    between atoms: C4*_9  and  C5*_10
REMARK                            x       y       z     vdW  Elec       q    Type
REMARK                         _______ _______ _______ _____ _____    ______ ____
ROOT
ATOM      1  C5M   T A   1     -12.063  14.358  69.487  0.00  0.00    +0.038 C 
ATOM      2  C5    T A   1     -11.541  15.009  68.563  0.00  0.00    +0.053 A 
ATOM      3  C4    T A   1     -11.039  16.298  68.727  0.00  0.00    +0.280 A 
ATOM      4  O4    T A   1     -10.721  16.627  69.911  0.00  0.00    -0.265 OA
ATOM      5  N3    T A   1     -10.662  17.033  67.650  0.00  0.00    -0.153 NA
ATOM      6  C2    T A   1     -10.462  16.443  66.445  0.00  0.00    +0.354 A 
ATOM      7  O2    T A   1     -10.440  17.142  65.388  0.00  0.00    -0.244 OA
ATOM      8  N1    T A   1     -10.714  15.186  66.350  0.00  0.00    -0.256 N 
ATOM      9  C6    T A   1     -11.425  14.496  67.274  0.00  0.00    +0.082 A 
ENDROOT
BRANCH   8  10
ATOM     10  C1*   T A   1     -10.655  14.405  64.977  0.00  0.00    +0.211 C 
ATOM     11  O4*   T A   1     -10.297  13.050  65.587  0.00  0.00    -0.332 OA
ATOM     12  C4*   T A   1     -10.565  12.525  64.200  0.00  0.00    +0.180 C 
ATOM     13  C3*   T A   1     -12.252  12.539  64.511  0.00  0.00    +0.186 C 
ATOM     14  O3*   T A   1     -12.539  13.004  63.103  0.00  0.00    -0.220 OA
ATOM     15  C2*   T A   1     -12.262  14.061  65.085  0.00  0.00    +0.089 C 
BRANCH  12  16
ATOM     16  C5*   T A   1     -10.472  10.962  64.680  0.00  0.00    +0.214 C 
ATOM     17  O5*   T A   1      -9.759  10.398  63.608  0.00  0.00    -0.218 OA
ENDBRANCH  12  16
ENDBRANCH   8  10
TORSDOF 2
ENDMDL
MODEL 9
REMARK VINA RESULT:      -5.7      3.427      4.257
REMARK  Name = 
REMARK  2 active torsions:
REMARK  status: ('A' for Active; 'I' for Inactive)
REMARK    1  A    between atoms: N1_4  and  C1*_5
REMARK    2  A    between atoms: C4*_9  and  C5*_10
REMARK                            x       y       z     vdW  Elec       q    Type
REMARK                         _______ _______ _______ _____ _____    ______ ____
ROOT
ATOM      1  C5M   T A   1     -11.585  14.172  64.650  0.00  0.00    +0.038 C 
ATOM      2  C5    T A   1     -11.170  14.959  65.522  0.00  0.00    +0.053 A 
ATOM      3  C4    T A   1     -10.796  16.272  65.247  0.00  0.00    +0.280 A 
ATOM      4  O4    T A   1     -11.294  16.787  64.199  0.00  0.00    -0.265 OA
ATOM      5  N3    T A   1     -10.170  17.022  66.190  0.00  0.00    -0.153 NA
ATOM      6  C2    T A   1     -10.175  16.642  67.492  0.00  0.00    +0.354 A 
ATOM      7  O2    T A   1      -9.337  17.135  68.304  0.00  0.00    -0.244 OA
ATOM      8  N1    T A   1     -10.728  15.518  67.781  0.00  0.00    -0.256 N 
ATOM      9  C6    T A   1     -11.038  14.579  66.854  0.00  0.00    +0.082 A 
ENDROOT
BRANCH   8  10
ATOM     10  C1*   T A   1     -10.686  14.894  69.232  0.00  0.00    +0.211 C 
ATOM     11  O4*   T A   1     -11.584  15.948  69.879  0.00  0.00    -0.332 OA
ATOM     12  C4*   T A   1     -11.577  15.010  71.060  0.00  0.00    +0.180 C 
ATOM     13  C3*   T A   1     -12.775  14.041  70.307  0.00  0.00    +0.186 C 
ATOM     14  O3*   T A   1     -12.118  12.779  70.814  0.00  0.00    -0.220 OA
ATOM     15  C2*   T A   1     -11.993  13.954  68.884  0.00  0.00    +0.089 C 
BRANCH  12  16
ATOM     16  C5*   T A   1     -12.735  15.859  71.849  0.00  0.00    +0.214 C 
ATOM     17  O5*   T A   1     -11.964  16.507  72.830  0.00  0.00    -0.218 OA
ENDBRANCH  12  16
ENDBRANCH   8  10
TORSDOF 2
ENDMDL
