MODEL 1
REMARK VINA RESULT:      -7.0      0.000      0.000
REMARK  Name = 
REMARK  5 active torsions:
REMARK  status: ('A' for Active; 'I' for Inactive)
REMARK    1  A    between atoms: C_3  and  C_4
REMARK    2  A    between atoms: CA_5  and  C_6
REMARK    3  A    between atoms: CA_12  and  N_13
REMARK    4  A    between atoms: C_14  and  CA_16
REMARK    5  A    between atoms: CA_16  and  C_18
REMARK                            x       y       z     vdW  Elec       q    Type
REMARK                         _______ _______ _______ _____ _____    ______ ____
ROOT
ATOM      1  C   UNL     1     -10.992  12.391  66.272  0.00  0.00    +0.009 C 
ATOM      2  C   UNL     1     -11.609  12.984  67.501  0.00  0.00    +0.087 C 
ATOM      3  S   UNL     1     -11.227  14.770  67.540  0.00  0.00    -0.114 S 
ATOM      4  C   UNL     1      -9.768  14.882  66.315  0.00  0.00    +0.157 C 
ATOM      5  N   UNL     1     -10.663  14.513  65.141  0.00  0.00    -0.242 N 
ATOM      6  C   UNL     1     -11.295  15.816  65.027  0.00  0.00    +0.253 C 
ATOM      7  O   UNL     1     -11.582  16.224  63.846  0.00  0.00    -0.273 OA
ATOM      8  CA  UNL     1      -9.924  16.437  65.654  0.00  0.00    +0.200 C 
ATOM      9  CA  UNL     1     -10.954  13.111  65.150  0.00  0.00    +0.132 C 
ENDROOT
BRANCH   1  12
ATOM     10  C   UNL     1      -9.561  10.476  66.679  0.00  0.00    +0.031 C 
ATOM     11  C   UNL     1      -9.950  10.317  66.370  0.00  0.00    -0.026 C 
ATOM     12  C   UNL     1     -11.092  10.938  66.106  0.00  0.00    -0.007 C 
ENDBRANCH   1  12
BRANCH   8  13
ATOM     13  N   UNL     1     -10.569  17.112  66.949  0.00  0.00    -0.194 NA
ATOM     14  C   UNL     1     -10.362  18.469  67.150  0.00  0.00    +0.264 C 
ATOM     15  O   UNL     1     -10.496  19.193  66.164  0.00  0.00    -0.271 OA
BRANCH  14  16
ATOM     16  CA  UNL     1      -9.156  18.899  68.174  0.00  0.00    +0.191 C 
ATOM     17  N   UNL     1      -9.816  20.341  68.409  0.00  0.00    -0.118 NA
BRANCH  16  18
ATOM     18  C   UNL     1      -8.209  19.478  66.963  0.00  0.00    +0.004 A 
ATOM     19  C   UNL     1      -7.570  20.658  67.343  0.00  0.00    +0.001 A 
ATOM     20  C   UNL     1      -6.425  21.025  66.646  0.00  0.00    +0.042 A 
ATOM     21  C   UNL     1      -6.001  20.246  65.575  0.00  0.00    +0.196 A 
ATOM     22  O   UNL     1      -5.303  20.793  64.492  0.00  0.00    -0.287 OA
ATOM     23  C   UNL     1      -6.434  18.932  65.536  0.00  0.00    +0.042 A 
ATOM     24  C   UNL     1      -7.306  18.503  66.532  0.00  0.00    +0.001 A 
ENDBRANCH  16  18
ENDBRANCH  14  16
ENDBRANCH   8  13
BRANCH   9  25
ATOM     25  C   UNL     1     -11.268  12.531  63.837  0.00  0.00    +0.401 C 
ATOM     26  OXT UNL     1     -12.531  12.788  63.292  0.00  0.00    -0.239 OA
ATOM     27  O   UNL     1     -10.368  12.060  63.091  0.00  0.00    -0.239 OA
ENDBRANCH   9  25
TORSDOF 5
ENDMDL
MODEL 2
REMARK VINA RESULT:      -6.8      1.104      1.313
REMARK  Name = 
REMARK  5 active torsions:
REMARK  status: ('A' for Active; 'I' for Inactive)
REMARK    1  A    between atoms: C_3  and  C_4
REMARK    2  A    between atoms: CA_5  and  C_6
REMARK    3  A    between atoms: CA_12  and  N_13
REMARK    4  A    between atoms: C_14  and  CA_16
REMARK    5  A    between atoms: CA_16  and  C_18
REMARK                            x       y       z     vdW  Elec       q    Type
REMARK                         _______ _______ _______ _____ _____    ______ ____
ROOT
ATOM      1  C   UNL     1     -10.973  12.524  66.310  0.00  0.00    +0.009 C 
ATOM      2  C   UNL     1     -11.632  13.103  67.523  0.00  0.00    +0.087 C 
ATOM      3  S   UNL     1     -11.263  14.891  67.588  0.00  0.00    -0.114 S 
ATOM      4  C   UNL     1      -9.766  15.021  66.411  0.00  0.00    +0.157 C 
ATOM      5  N   UNL     1     -10.620  14.656  65.207  0.00  0.00    -0.242 N 
ATOM      6  C   UNL     1     -11.256  15.957  65.083  0.00  0.00    +0.253 C 
ATOM      7  O   UNL     1     -11.508  16.372  63.897  0.00  0.00    -0.273 OA
ATOM      8  CA  UNL     1      -9.909  16.581  65.758  0.00  0.00    +0.200 C 
ATOM      9  CA  UNL     1     -10.903  13.252  65.195  0.00  0.00    +0.132 C 
ENDROOT
BRANCH   1  12
ATOM     10  C   UNL     1      -9.497  10.625  66.628  0.00  0.00    +0.031 C 
ATOM     11  C   UNL     1      -9.897  10.464  66.335  0.00  0.00    -0.026 C 
ATOM     12  C   UNL     1     -11.059  11.071  66.130  0.00  0.00    -0.007 C 
ENDBRANCH   1  12
BRANCH   8  13
ATOM     13  N   UNL     1     -10.600  17.242  67.037  0.00  0.00    -0.194 NA
ATOM     14  C   UNL     1     -10.480  18.613  67.208  0.00  0.00    +0.264 C 
ATOM     15  O   UNL     1     -10.659  19.304  66.205  0.00  0.00    -0.271 OA
BRANCH  14  16
ATOM     16  CA  UNL     1      -9.307  19.142  68.223  0.00  0.00    +0.191 C 
ATOM     17  N   UNL     1      -9.126  20.490  67.374  0.00  0.00    -0.118 NA
BRANCH  16  18
ATOM     18  C   UNL     1      -8.112  18.395  67.378  0.00  0.00    +0.004 A 
ATOM     19  C   UNL     1      -7.348  19.318  66.663  0.00  0.00    +0.001 A 
ATOM     20  C   UNL     1      -6.069  18.935  66.277  0.00  0.00    +0.042 A 
ATOM     21  C   UNL     1      -5.629  17.647  66.561  0.00  0.00    +0.196 A 
ATOM     22  O   UNL     1      -4.701  16.985  65.750  0.00  0.00    -0.287 OA
ATOM     23  C   UNL     1      -6.263  16.973  67.591  0.00  0.00    +0.042 A 
ATOM     24  C   UNL     1      -7.329  17.604  68.224  0.00  0.00    +0.001 A 
ENDBRANCH  16  18
ENDBRANCH  14  16
ENDBRANCH   8  13
BRANCH   9  25
ATOM     25  C   UNL     1     -11.172  12.681  63.869  0.00  0.00    +0.401 C 
ATOM     26  OXT UNL     1     -12.422  12.927  63.290  0.00  0.00    -0.239 OA
ATOM     27  O   UNL     1     -10.244  12.229  63.145  0.00  0.00    -0.239 OA
ENDBRANCH   9  25
TORSDOF 5
ENDMDL
MODEL 3
REMARK VINA RESULT:      -6.7      4.026      8.861
REMARK  Name = 
REMARK  5 active torsions:
REMARK  status: ('A' for Active; 'I' for Inactive)
REMARK    1  A    between atoms: C_3  and  C_4
REMARK    2  A    between atoms: CA_5  and  C_6
REMARK    3  A    between atoms: CA_12  and  N_13
REMARK    4  A    between atoms: C_14  and  CA_16
REMARK    5  A    between atoms: CA_16  and  C_18
REMARK                            x       y       z     vdW  Elec       q    Type
REMARK                         _______ _______ _______ _____ _____    ______ ____
ROOT
ATOM      1  C   UNL     1      -8.310  16.479  67.469  0.00  0.00    +0.009 C 
ATOM      2  C   UNL     1      -7.535  15.280  67.018  0.00  0.00    +0.087 C 
ATOM      3  S   UNL     1      -8.525  13.784  67.360  0.00  0.00    -0.114 S 
ATOM      4  C   UNL     1      -9.792  14.439  68.629  0.00  0.00    +0.157 C 
ATOM      5  N   UNL     1     -10.446  15.332  67.586  0.00  0.00    -0.242 N 
ATOM      6  C   UNL     1     -11.168  14.265  66.915  0.00  0.00    +0.253 C 
ATOM      7  O   UNL     1     -12.330  14.546  66.454  0.00  0.00    -0.273 OA
ATOM      8  CA  UNL     1     -11.166  13.484  68.346  0.00  0.00    +0.200 C 
ATOM      9  CA  UNL     1      -9.637  16.486  67.331  0.00  0.00    +0.132 C 
ENDROOT
BRANCH   1  12
ATOM     10  C   UNL     1      -7.055  17.914  68.969  0.00  0.00    +0.031 C 
ATOM     11  C   UNL     1      -7.189  18.200  68.554  0.00  0.00    -0.026 C 
ATOM     12  C   UNL     1      -7.643  17.782  67.380  0.00  0.00    -0.007 C 
ENDBRANCH   1  12
BRANCH   8  13
ATOM     13  N   UNL     1     -10.377  12.179  67.874  0.00  0.00    -0.194 NA
ATOM     14  C   UNL     1     -10.858  10.943  68.280  0.00  0.00    +0.264 C 
ATOM     15  O   UNL     1     -12.074  10.776  68.192  0.00  0.00    -0.271 OA
BRANCH  14  16
ATOM     16  CA  UNL     1     -10.150  10.255  69.589  0.00  0.00    +0.191 C 
ATOM     17  N   UNL     1     -10.021   8.849  68.830  0.00  0.00    -0.118 NA
BRANCH  16  18
ATOM     18  C   UNL     1     -11.590   9.817  70.251  0.00  0.00    +0.004 A 
ATOM     19  C   UNL     1     -11.509   8.557  70.842  0.00  0.00    +0.001 A 
ATOM     20  C   UNL     1     -12.455   8.236  71.808  0.00  0.00    +0.042 A 
ATOM     21  C   UNL     1     -13.464   9.146  72.101  0.00  0.00    +0.196 A 
ATOM     22  O   UNL     1     -14.726   8.736  72.545  0.00  0.00    -0.287 OA
ATOM     23  C   UNL     1     -13.233  10.474  71.785  0.00  0.00    +0.042 A 
ATOM     24  C   UNL     1     -12.040  10.793  71.145  0.00  0.00    +0.001 A 
ENDBRANCH  16  18
ENDBRANCH  14  16
ENDBRANCH   8  13
BRANCH   9  25
ATOM     25  C   UNL     1     -10.367  17.666  66.849  0.00  0.00    +0.401 C 
ATOM     26  OXT UNL     1     -10.605  17.772  65.474  0.00  0.00    -0.239 OA
ATOM     27  O   UNL     1     -11.005  18.415  67.636  0.00  0.00    -0.239 OA
ENDBRANCH   9  25
TORSDOF 5
ENDMDL
MODEL 4
REMARK VINA RESULT:      -6.7      3.765      8.498
REMARK  Name = 
REMARK  5 active torsions:
REMARK  status: ('A' for Active; 'I' for Inactive)
REMARK    1  A    between atoms: C_3  and  C_4
REMARK    2  A    between atoms: CA_5  and  C_6
REMARK    3  A    between atoms: CA_12  and  N_13
REMARK    4  A    between atoms: C_14  and  CA_16
REMARK    5  A    between atoms: CA_16  and  C_18
REMARK                            x       y       z     vdW  Elec       q    Type
REMARK                         _______ _______ _______ _____ _____    ______ ____
ROOT
ATOM      1  C   UNL     1     -10.114  15.640  66.364  0.00  0.00    +0.009 C 
ATOM      2  C   UNL     1      -8.777  15.029  66.647  0.00  0.00    +0.087 C 
ATOM      3  S   UNL     1      -9.006  13.242  66.950  0.00  0.00    -0.114 S 
ATOM      4  C   UNL     1     -10.877  13.148  67.317  0.00  0.00    +0.157 C 
ATOM      5  N   UNL     1     -11.226  13.536  65.889  0.00  0.00    -0.242 N 
ATOM      6  C   UNL     1     -10.934  12.235  65.311  0.00  0.00    +0.253 C 
ATOM      7  O   UNL     1     -11.678  11.846  64.342  0.00  0.00    -0.273 OA
ATOM      8  CA  UNL     1     -11.312  11.603  66.765  0.00  0.00    +0.200 C 
ATOM      9  CA  UNL     1     -11.021  14.938  65.682  0.00  0.00    +0.132 C 
ENDROOT
BRANCH   1  12
ATOM     10  C   UNL     1     -10.523  17.557  67.793  0.00  0.00    +0.031 C 
ATOM     11  C   UNL     1     -10.562  17.719  67.300  0.00  0.00    -0.026 C 
ATOM     12  C   UNL     1     -10.164  17.096  66.198  0.00  0.00    -0.007 C 
ENDBRANCH   1  12
BRANCH   8  13
ATOM     13  N   UNL     1      -9.906  10.908  67.066  0.00  0.00    -0.194 NA
ATOM     14  C   UNL     1      -9.883   9.836  67.946  0.00  0.00    +0.264 C 
ATOM     15  O   UNL     1     -10.768   8.993  67.799  0.00  0.00    -0.271 OA
BRANCH  14  16
ATOM     16  CA  UNL     1      -9.465  10.149  69.499  0.00  0.00    +0.191 C 
ATOM     17  N   UNL     1      -8.858   8.676  69.675  0.00  0.00    -0.118 NA
BRANCH  16  18
ATOM     18  C   UNL     1     -10.923   9.668  70.085  0.00  0.00    +0.004 A 
ATOM     19  C   UNL     1     -10.770   8.759  71.132  0.00  0.00    +0.001 A 
ATOM     20  C   UNL     1     -11.834   8.605  72.013  0.00  0.00    +0.042 A 
ATOM     21  C   UNL     1     -13.012   9.307  71.786  0.00  0.00    +0.196 A 
ATOM     22  O   UNL     1     -14.258   8.812  72.186  0.00  0.00    -0.287 OA
ATOM     23  C   UNL     1     -12.932  10.447  71.004  0.00  0.00    +0.042 A 
ATOM     24  C   UNL     1     -11.697  10.772  70.453  0.00  0.00    +0.001 A 
ENDBRANCH  16  18
ENDBRANCH  14  16
ENDBRANCH   8  13
BRANCH   9  25
ATOM     25  C   UNL     1     -11.840  15.539  64.621  0.00  0.00    +0.401 C 
ATOM     26  OXT UNL     1     -11.341  16.673  63.971  0.00  0.00    -0.239 OA
ATOM     27  O   UNL     1     -12.812  14.922  64.109  0.00  0.00    -0.239 OA
ENDBRANCH   9  25
TORSDOF 5
ENDMDL
MODEL 5
REMARK VINA RESULT:      -6.7      3.034      3.431
REMARK  Name = 
REMARK  5 active torsions:
REMARK  status: ('A' for Active; 'I' for Inactive)
REMARK    1  A    between atoms: C_3  and  C_4
REMARK    2  A    between atoms: CA_5  and  C_6
REMARK    3  A    between atoms: CA_12  and  N_13
REMARK    4  A    between atoms: C_14  and  CA_16
REMARK    5  A    between atoms: CA_16  and  C_18
REMARK                            x       y       z     vdW  Elec       q    Type
REMARK                         _______ _______ _______ _____ _____    ______ ____
ROOT
ATOM      1  C   UNL     1     -10.836  13.242  67.201  0.00  0.00    +0.009 C 
ATOM      2  C   UNL     1     -10.632  13.765  68.589  0.00  0.00    +0.087 C 
ATOM      3  S   UNL     1      -9.512  15.205  68.509  0.00  0.00    -0.114 S 
ATOM      4  C   UNL     1      -8.713  14.980  66.790  0.00  0.00    +0.157 C 
ATOM      5  N   UNL     1     -10.036  15.244  66.087  0.00  0.00    -0.242 N 
ATOM      6  C   UNL     1     -10.016  16.683  66.278  0.00  0.00    +0.253 C 
ATOM      7  O   UNL     1     -10.499  17.404  65.335  0.00  0.00    -0.273 OA
ATOM      8  CA  UNL     1      -8.390  16.570  66.291  0.00  0.00    +0.200 C 
ATOM      9  CA  UNL     1     -10.894  14.101  66.183  0.00  0.00    +0.132 C 
ENDROOT
BRANCH   1  12
ATOM     10  C   UNL     1     -10.368  10.883  66.882  0.00  0.00    +0.031 C 
ATOM     11  C   UNL     1     -10.872  10.958  66.772  0.00  0.00    -0.026 C 
ATOM     12  C   UNL     1     -11.625  12.013  67.057  0.00  0.00    -0.007 C 
ENDBRANCH   1  12
BRANCH   8  13
ATOM     13  N   UNL     1      -8.147  17.165  67.754  0.00  0.00    -0.194 NA
ATOM     14  C   UNL     1      -7.217  18.183  67.898  0.00  0.00    +0.264 C 
ATOM     15  O   UNL     1      -7.260  19.083  67.059  0.00  0.00    -0.271 OA
BRANCH  14  16
ATOM     16  CA  UNL     1      -5.714  17.760  68.395  0.00  0.00    +0.191 C 
ATOM     17  N   UNL     1      -6.313  16.883  69.595  0.00  0.00    -0.118 NA
BRANCH  16  18
ATOM     18  C   UNL     1      -5.566  19.076  69.369  0.00  0.00    +0.004 A 
ATOM     19  C   UNL     1      -5.656  18.719  70.714  0.00  0.00    +0.001 A 
ATOM     20  C   UNL     1      -5.117  19.593  71.651  0.00  0.00    +0.042 A 
ATOM     21  C   UNL     1      -4.571  20.797  71.222  0.00  0.00    +0.196 A 
ATOM     22  O   UNL     1      -4.572  21.940  72.030  0.00  0.00    -0.287 OA
ATOM     23  C   UNL     1      -4.165  20.876  69.901  0.00  0.00    +0.042 A 
ATOM     24  C   UNL     1      -4.387  19.771  69.085  0.00  0.00    +0.001 A 
ENDBRANCH  16  18
ENDBRANCH  14  16
ENDBRANCH   8  13
BRANCH   9  25
ATOM     25  C   UNL     1     -11.886  13.974  65.107  0.00  0.00    +0.401 C 
ATOM     26  OXT UNL     1     -11.505  13.302  63.940  0.00  0.00    -0.239 OA
ATOM     27  O   UNL     1     -13.110  14.199  65.307  0.00  0.00    -0.239 OA
ENDBRANCH   9  25
TORSDOF 5
ENDMDL
MODEL 6
REMARK VINA RESULT:      -6.6      3.402      7.714
REMARK  Name = 
REMARK  5 active torsions:
REMARK  status: ('A' for Active; 'I' for Inactive)
REMARK    1  A    between atoms: C_3  and  C_4
REMARK    2  A    between atoms: CA_5  and  C_6
REMARK    3  A    between atoms: CA_12  and  N_13
REMARK    4  A    between atoms: C_14  and  CA_16
REMARK    5  A    between atoms: CA_16  and  C_18
REMARK                            x       y       z     vdW  Elec       q    Type
REMARK                         _______ _______ _______ _____ _____    ______ ____
ROOT
ATOM      1  C   UNL     1      -6.512  17.976  67.905  0.00  0.00    +0.009 C 
ATOM      2  C   UNL     1      -6.207  16.536  67.631  0.00  0.00    +0.087 C 
ATOM      3  S   UNL     1      -7.782  15.619  67.516  0.00  0.00    -0.114 S 
ATOM      4  C   UNL     1      -8.996  16.826  68.361  0.00  0.00    +0.157 C 
ATOM      5  N   UNL     1      -8.842  17.842  67.240  0.00  0.00    -0.242 N 
ATOM      6  C   UNL     1      -9.682  17.135  66.289  0.00  0.00    +0.253 C 
ATOM      7  O   UNL     1     -10.403  17.848  65.505  0.00  0.00    -0.273 OA
ATOM      8  CA  UNL     1     -10.470  16.520  67.577  0.00  0.00    +0.200 C 
ATOM      9  CA  UNL     1      -7.591  18.530  67.351  0.00  0.00    +0.132 C 
ENDROOT
BRANCH   1  12
ATOM     10  C   UNL     1      -5.443  18.988  69.833  0.00  0.00    +0.031 C 
ATOM     11  C   UNL     1      -5.271  19.239  69.410  0.00  0.00    -0.026 C 
ATOM     12  C   UNL     1      -5.372  18.869  68.140  0.00  0.00    -0.007 C 
ENDBRANCH   1  12
BRANCH   8  13
ATOM     13  N   UNL     1     -10.191  14.976  67.279  0.00  0.00    -0.194 NA
ATOM     14  C   UNL     1     -11.110  14.046  67.740  0.00  0.00    +0.264 C 
ATOM     15  O   UNL     1     -12.297  14.320  67.564  0.00  0.00    -0.271 OA
BRANCH  14  16
ATOM     16  CA  UNL     1     -10.769  13.292  69.155  0.00  0.00    +0.191 C 
ATOM     17  N   UNL     1     -11.846  12.144  68.849  0.00  0.00    -0.118 NA
BRANCH  16  18
ATOM     18  C   UNL     1     -11.875  14.169  69.996  0.00  0.00    +0.004 A 
ATOM     19  C   UNL     1     -12.676  13.345  70.786  0.00  0.00    +0.001 A 
ATOM     20  C   UNL     1     -13.331  13.926  71.866  0.00  0.00    +0.042 A 
ATOM     21  C   UNL     1     -13.211  15.294  72.079  0.00  0.00    +0.196 A 
ATOM     22  O   UNL     1     -14.226  16.041  72.687  0.00  0.00    -0.287 OA
ATOM     23  C   UNL     1     -12.114  15.930  71.522  0.00  0.00    +0.042 A 
ATOM     24  C   UNL     1     -11.247  15.170  70.743  0.00  0.00    +0.001 A 
ENDBRANCH  16  18
ENDBRANCH  14  16
ENDBRANCH   8  13
BRANCH   9  25
ATOM     25  C   UNL     1      -7.563  19.873  66.757  0.00  0.00    +0.401 C 
ATOM     26  OXT UNL     1      -7.297  19.979  65.388  0.00  0.00    -0.239 OA
ATOM     27  O   UNL     1      -8.030  20.874  67.365  0.00  0.00    -0.239 OA
ENDBRANCH   9  25
TORSDOF 5
ENDMDL
MODEL 7
REMARK VINA RESULT:      -6.5      3.733      8.683
REMARK  Name = 
REMARK  5 active torsions:
REMARK  status: ('A' for Active; 'I' for Inactive)
REMARK    1  A    between atoms: C_3  and  C_4
REMARK    2  A    between atoms: CA_5  and  C_6
REMARK    3  A    between atoms: CA_12  and  N_13
REMARK    4  A    between atoms: C_14  and  CA_16
REMARK    5  A    between atoms: CA_16  and  C_18
REMARK                            x       y       z     vdW  Elec       q    Type
REMARK                         _______ _______ _______ _____ _____    ______ ____
ROOT
ATOM      1  C   UNL     1      -9.520  18.021  67.527  0.00  0.00    +0.009 C 
ATOM      2  C   UNL     1     -10.182  17.487  68.758  0.00  0.00    +0.087 C 
ATOM      3  S   UNL     1     -10.223  15.664  68.654  0.00  0.00    -0.114 S 
ATOM      4  C   UNL     1      -9.922  15.376  66.791  0.00  0.00    +0.157 C 
ATOM      5  N   UNL     1      -8.502  15.912  66.888  0.00  0.00    -0.242 N 
ATOM      6  C   UNL     1      -7.941  14.723  67.505  0.00  0.00    +0.253 C 
ATOM      7  O   UNL     1      -6.746  14.401  67.171  0.00  0.00    -0.273 OA
ATOM      8  CA  UNL     1      -9.115  13.884  66.746  0.00  0.00    +0.200 C 
ATOM      9  CA  UNL     1      -8.508  17.341  66.984  0.00  0.00    +0.132 C 
ENDROOT
BRANCH   1  12
ATOM     10  C   UNL     1     -10.647  19.663  66.142  0.00  0.00    +0.031 C 
ATOM     11  C   UNL     1     -10.230  19.896  66.351  0.00  0.00    -0.026 C 
ATOM     12  C   UNL     1      -9.481  19.478  67.364  0.00  0.00    -0.007 C 
ENDBRANCH   1  12
BRANCH   8  13
ATOM     13  N   UNL     1      -9.811  13.270  68.046  0.00  0.00    -0.194 NA
ATOM     14  C   UNL     1      -9.589  11.933  68.336  0.00  0.00    +0.264 C 
ATOM     15  O   UNL     1      -8.427  11.539  68.233  0.00  0.00    -0.271 OA
BRANCH  14  16
ATOM     16  CA  UNL     1     -10.735  10.861  67.862  0.00  0.00    +0.191 C 
ATOM     17  N   UNL     1     -11.906  11.900  68.208  0.00  0.00    -0.118 NA
BRANCH  16  18
ATOM     18  C   UNL     1     -10.841  10.176  69.352  0.00  0.00    +0.004 A 
ATOM     19  C   UNL     1     -11.988  10.601  70.021  0.00  0.00    +0.001 A 
ATOM     20  C   UNL     1     -12.460   9.808  71.060  0.00  0.00    +0.042 A 
ATOM     21  C   UNL     1     -11.749   8.670  71.424  0.00  0.00    +0.196 A 
ATOM     22  O   UNL     1     -11.758   8.179  72.735  0.00  0.00    -0.287 OA
ATOM     23  C   UNL     1     -10.897   8.124  70.479  0.00  0.00    +0.042 A 
ATOM     24  C   UNL     1     -10.768   8.783  69.261  0.00  0.00    +0.001 A 
ENDBRANCH  16  18
ENDBRANCH  14  16
ENDBRANCH   8  13
BRANCH   9  25
ATOM     25  C   UNL     1      -7.292  18.004  66.495  0.00  0.00    +0.401 C 
ATOM     26  OXT UNL     1      -6.225  18.156  67.386  0.00  0.00    -0.239 OA
ATOM     27  O   UNL     1      -7.087  18.182  65.264  0.00  0.00    -0.239 OA
ENDBRANCH   9  25
TORSDOF 5
ENDMDL
MODEL 8
REMARK VINA RESULT:      -6.4      2.577      7.472
REMARK  Name = 
REMARK  5 active torsions:
REMARK  status: ('A' for Active; 'I' for Inactive)
REMARK    1  A    between atoms: C_3  and  C_4
REMARK    2  A    between atoms: CA_5  and  C_6
REMARK    3  A    between atoms: CA_12  and  N_13
REMARK    4  A    between atoms: C_14  and  CA_16
REMARK    5  A    between atoms: CA_16  and  C_18
REMARK                            x       y       z     vdW  Elec       q    Type
REMARK                         _______ _______ _______ _____ _____    ______ ____
ROOT
ATOM      1  C   UNL     1      -9.206  18.239  67.474  0.00  0.00    +0.009 C 
ATOM      2  C   UNL     1      -9.793  17.710  68.746  0.00  0.00    +0.087 C 
ATOM      3  S   UNL     1      -9.690  15.887  68.720  0.00  0.00    -0.114 S 
ATOM      4  C   UNL     1      -9.413  15.540  66.863  0.00  0.00    +0.157 C 
ATOM      5  N   UNL     1      -8.039  16.191  66.897  0.00  0.00    -0.242 N 
ATOM      6  C   UNL     1      -7.369  15.078  67.547  0.00  0.00    +0.253 C 
ATOM      7  O   UNL     1      -6.160  14.838  67.194  0.00  0.00    -0.273 OA
ATOM      8  CA  UNL     1      -8.490  14.116  66.858  0.00  0.00    +0.200 C 
ATOM      9  CA  UNL     1      -8.157  17.618  66.932  0.00  0.00    +0.132 C 
ENDROOT
BRANCH   1  12
ATOM     10  C   UNL     1     -10.592  19.735  66.160  0.00  0.00    +0.031 C 
ATOM     11  C   UNL     1     -10.172  20.004  66.312  0.00  0.00    -0.026 C 
ATOM     12  C   UNL     1      -9.288  19.686  67.249  0.00  0.00    -0.007 C 
ENDBRANCH   1  12
BRANCH   8  13
ATOM     13  N   UNL     1      -9.102  13.508  68.202  0.00  0.00    -0.194 NA
ATOM     14  C   UNL     1      -9.055  12.133  68.378  0.00  0.00    +0.264 C 
ATOM     15  O   UNL     1      -7.990  11.585  68.091  0.00  0.00    -0.271 OA
BRANCH  14  16
ATOM     16  CA  UNL     1     -10.404  11.282  68.002  0.00  0.00    +0.191 C 
ATOM     17  N   UNL     1      -9.589  10.370  66.967  0.00  0.00    -0.118 NA
BRANCH  16  18
ATOM     18  C   UNL     1     -10.841  12.325  66.809  0.00  0.00    +0.004 A 
ATOM     19  C   UNL     1     -10.864  11.689  65.568  0.00  0.00    +0.001 A 
ATOM     20  C   UNL     1     -11.622  12.272  64.559  0.00  0.00    +0.042 A 
ATOM     21  C   UNL     1     -12.270  13.477  64.805  0.00  0.00    +0.196 A 
ATOM     22  O   UNL     1     -12.517  14.406  63.787  0.00  0.00    -0.287 OA
ATOM     23  C   UNL     1     -12.522  13.805  66.126  0.00  0.00    +0.042 A 
ATOM     24  C   UNL     1     -12.059  12.939  67.111  0.00  0.00    +0.001 A 
ENDBRANCH  16  18
ENDBRANCH  14  16
ENDBRANCH   8  13
BRANCH   9  25
ATOM     25  C   UNL     1      -7.011  18.353  66.381  0.00  0.00    +0.401 C 
ATOM     26  OXT UNL     1      -5.932  18.617  67.231  0.00  0.00    -0.239 OA
ATOM     27  O   UNL     1      -6.857  18.501  65.139  0.00  0.00    -0.239 OA
ENDBRANCH   9  25
TORSDOF 5
ENDMDL
MODEL 9
REMARK VINA RESULT:      -6.3      3.096      3.617
REMARK  Name = 
REMARK  5 active torsions:
REMARK  status: ('A' for Active; 'I' for Inactive)
REMARK    1  A    between atoms: C_3  and  C_4
REMARK    2  A    between atoms: CA_5  and  C_6
REMARK    3  A    between atoms: CA_12  and  N_13
REMARK    4  A    between atoms: C_14  and  CA_16
REMARK    5  A    between atoms: CA_16  and  C_18
REMARK                            x       y       z     vdW  Elec       q    Type
REMARK                         _______ _______ _______ _____ _____    ______ ____
ROOT
ATOM      1  C   UNL     1      -9.756  13.219  66.093  0.00  0.00    +0.009 C 
ATOM      2  C   UNL     1      -8.521  13.270  66.938  0.00  0.00    +0.087 C 
ATOM      3  S   UNL     1      -8.212  15.007  67.412  0.00  0.00    -0.114 S 
ATOM      4  C   UNL     1      -9.274  15.952  66.138  0.00  0.00    +0.157 C 
ATOM      5  N   UNL     1     -10.562  15.415  66.742  0.00  0.00    -0.242 N 
ATOM      6  C   UNL     1     -10.560  16.298  67.895  0.00  0.00    +0.253 C 
ATOM      7  O   UNL     1     -11.698  16.717  68.312  0.00  0.00    -0.273 OA
ATOM      8  CA  UNL     1      -9.735  17.357  66.971  0.00  0.00    +0.200 C 
ATOM      9  CA  UNL     1     -10.766  14.048  66.363  0.00  0.00    +0.132 C 
ENDROOT
BRANCH   1  12
ATOM     10  C   UNL     1      -9.952  12.280  63.865  0.00  0.00    +0.031 C 
ATOM     11  C   UNL     1     -10.195  11.956  64.193  0.00  0.00    -0.026 C 
ATOM     12  C   UNL     1     -10.122  11.921  65.517  0.00  0.00    -0.007 C 
ENDBRANCH   1  12
BRANCH   8  13
ATOM     13  N   UNL     1      -8.426  17.458  67.880  0.00  0.00    -0.194 NA
ATOM     14  C   UNL     1      -8.209  18.632  68.584  0.00  0.00    +0.264 C 
ATOM     15  O   UNL     1      -9.185  19.108  69.165  0.00  0.00    -0.271 OA
BRANCH  14  16
ATOM     16  CA  UNL     1      -7.189  19.729  67.918  0.00  0.00    +0.191 C 
ATOM     17  N   UNL     1      -6.182  18.570  67.455  0.00  0.00    -0.118 NA
BRANCH  16  18
ATOM     18  C   UNL     1      -6.362  19.949  69.321  0.00  0.00    +0.004 A 
ATOM     19  C   UNL     1      -5.895  18.736  69.826  0.00  0.00    +0.001 A 
ATOM     20  C   UNL     1      -4.831  18.776  70.719  0.00  0.00    +0.042 A 
ATOM     21  C   UNL     1      -4.319  20.007  71.113  0.00  0.00    +0.196 A 
ATOM     22  O   UNL     1      -3.731  20.197  72.369  0.00  0.00    -0.287 OA
ATOM     23  C   UNL     1      -4.555  21.088  70.282  0.00  0.00    +0.042 A 
ATOM     24  C   UNL     1      -5.334  20.880  69.148  0.00  0.00    +0.001 A 
ENDBRANCH  16  18
ENDBRANCH  14  16
ENDBRANCH   8  13
BRANCH   9  25
ATOM     25  C   UNL     1     -12.166  13.606  66.351  0.00  0.00    +0.401 C 
ATOM     26  OXT UNL     1     -12.971  14.009  65.279  0.00  0.00    -0.239 OA
ATOM     27  O   UNL     1     -12.573  12.680  67.103  0.00  0.00    -0.239 OA
ENDBRANCH   9  25
TORSDOF 5
ENDMDL
