MODEL 1
REMARK VINA RESULT:      -5.3      0.000      0.000
REMARK  Name = 
REMARK  5 active torsions:
REMARK  status: ('A' for Active; 'I' for Inactive)
REMARK    1  A    between atoms: C_2  and  N_3
REMARK    2  A    between atoms: N_3  and  C_4
REMARK    3  A    between atoms: C_6  and  C_8
REMARK    4  A    between atoms: C_8  and  C_9
REMARK    5  A    between atoms: C_16  and  C_17
REMARK                            x       y       z     vdW  Elec       q    Type
REMARK                         _______ _______ _______ _____ _____    ______ ____
ROOT
ATOM      1  C   UNL     1     -11.063  13.416  66.673  0.00  0.00    +0.089 C 
ATOM      2  C   UNL     1     -11.153  15.075  66.604  0.00  0.00    +0.032 C 
ATOM      3  C   UNL     1     -12.411  14.132  66.067  0.00  0.00    +0.015 C 
ENDROOT
BRANCH   1   4
ATOM      4  C   UNL     1     -11.525  12.875  67.965  0.00  0.00    -0.015 A 
ATOM      5  C   UNL     1     -11.738  11.531  68.093  0.00  0.00    -0.004 A 
ATOM      6  C   UNL     1     -12.102  10.972  69.294  0.00  0.00    -0.000 A 
ATOM      7  C   UNL     1     -11.984  11.748  70.436  0.00  0.00    -0.000 A 
ATOM      8  C   UNL     1     -12.158  13.108  70.260  0.00  0.00    -0.000 A 
ATOM      9  C   UNL     1     -12.001  13.678  69.000  0.00  0.00    -0.004 A 
ENDBRANCH   1   4
BRANCH   1  11
ATOM     10  N   UNL     1     -10.187  11.761  64.960  0.00  0.00    -0.279 N 
ATOM     11  C   UNL     1     -10.049  12.873  65.869  0.00  0.00    +0.229 C 
ATOM     12  O   UNL     1      -8.906  12.845  66.442  0.00  0.00    -0.275 OA
BRANCH  10  14
ATOM     13  C   UNL     1      -9.836   9.473  65.607  0.00  0.00    +0.023 C 
ATOM     14  C   UNL     1      -9.201  10.675  64.952  0.00  0.00    +0.093 C 
ENDBRANCH  10  14
BRANCH  10  15
ATOM     15  C   UNL     1     -10.713  12.175  63.705  0.00  0.00    +0.093 C 
ATOM     16  C   UNL     1     -12.101  11.880  63.360  0.00  0.00    +0.023 C 
ENDBRANCH  10  15
ENDBRANCH   1  11
BRANCH   2  17
ATOM     17  C   UNL     1     -10.539  15.252  65.046  0.00  0.00    +0.110 C 
ATOM     18  N   UNL     1     -10.973  16.541  64.613  0.00  0.00    -0.131 NA
ENDBRANCH   2  17
TORSDOF 5
ENDMDL
MODEL 2
REMARK VINA RESULT:      -5.1      3.238      6.022
REMARK  Name = 
REMARK  5 active torsions:
REMARK  status: ('A' for Active; 'I' for Inactive)
REMARK    1  A    between atoms: C_2  and  N_3
REMARK    2  A    between atoms: N_3  and  C_4
REMARK    3  A    between atoms: C_6  and  C_8
REMARK    4  A    between atoms: C_8  and  C_9
REMARK    5  A    between atoms: C_16  and  C_17
REMARK                            x       y       z     vdW  Elec       q    Type
REMARK                         _______ _______ _______ _____ _____    ______ ____
ROOT
ATOM      1  C   UNL     1      -9.949  16.112  67.516  0.00  0.00    +0.089 C 
ATOM      2  C   UNL     1      -8.896  15.439  66.418  0.00  0.00    +0.032 C 
ATOM      3  C   UNL     1     -10.512  15.592  66.064  0.00  0.00    +0.015 C 
ENDROOT
BRANCH   1   4
ATOM      4  C   UNL     1     -10.031  17.581  67.398  0.00  0.00    -0.015 A 
ATOM      5  C   UNL     1      -9.900  18.352  68.518  0.00  0.00    -0.004 A 
ATOM      6  C   UNL     1      -9.901  19.725  68.449  0.00  0.00    -0.000 A 
ATOM      7  C   UNL     1      -9.761  20.314  67.204  0.00  0.00    -0.000 A 
ATOM      8  C   UNL     1     -10.274  19.599  66.138  0.00  0.00    -0.000 A 
ATOM      9  C   UNL     1     -10.485  18.228  66.250  0.00  0.00    -0.004 A 
ENDBRANCH   1   4
BRANCH   1  11
ATOM     10  N   UNL     1     -11.291  15.157  69.446  0.00  0.00    -0.279 N 
ATOM     11  C   UNL     1     -10.074  15.374  68.702  0.00  0.00    +0.229 C 
ATOM     12  O   UNL     1      -9.081  15.517  69.497  0.00  0.00    -0.275 OA
BRANCH  10  14
ATOM     13  C   UNL     1     -12.738  15.671  71.295  0.00  0.00    +0.023 C 
ATOM     14  C   UNL     1     -11.320  15.340  70.901  0.00  0.00    +0.093 C 
ENDBRANCH  10  14
BRANCH  10  15
ATOM     15  C   UNL     1     -12.047  14.080  68.908  0.00  0.00    +0.093 C 
ATOM     16  C   UNL     1     -11.684  12.702  69.223  0.00  0.00    +0.023 C 
ENDBRANCH  10  15
ENDBRANCH   1  11
BRANCH   2  17
ATOM     17  C   UNL     1      -9.090  13.837  66.900  0.00  0.00    +0.110 C 
ATOM     18  N   UNL     1      -9.810  13.209  65.840  0.00  0.00    -0.131 NA
ENDBRANCH   2  17
TORSDOF 5
ENDMDL
MODEL 3
REMARK VINA RESULT:      -5.1      3.173      5.219
REMARK  Name = 
REMARK  5 active torsions:
REMARK  status: ('A' for Active; 'I' for Inactive)
REMARK    1  A    between atoms: C_2  and  N_3
REMARK    2  A    between atoms: N_3  and  C_4
REMARK    3  A    between atoms: C_6  and  C_8
REMARK    4  A    between atoms: C_8  and  C_9
REMARK    5  A    between atoms: C_16  and  C_17
REMARK                            x       y       z     vdW  Elec       q    Type
REMARK                         _______ _______ _______ _____ _____    ______ ____
ROOT
ATOM      1  C   UNL     1     -10.608  15.877  67.737  0.00  0.00    +0.089 C 
ATOM      2  C   UNL     1     -11.365  15.240  66.401  0.00  0.00    +0.032 C 
ATOM      3  C   UNL     1     -10.004  14.525  67.029  0.00  0.00    +0.015 C 
ENDROOT
BRANCH   1   4
ATOM      4  C   UNL     1     -11.167  15.369  69.004  0.00  0.00    -0.015 A 
ATOM      5  C   UNL     1     -11.243  16.199  70.087  0.00  0.00    -0.004 A 
ATOM      6  C   UNL     1     -11.818  15.791  71.266  0.00  0.00    -0.000 A 
ATOM      7  C   UNL     1     -12.564  14.625  71.258  0.00  0.00    -0.000 A 
ATOM      8  C   UNL     1     -12.166  13.662  70.350  0.00  0.00    -0.000 A 
ATOM      9  C   UNL     1     -11.397  14.015  69.246  0.00  0.00    -0.004 A 
ENDBRANCH   1   4
BRANCH   1  11
ATOM     10  N   UNL     1      -8.771  17.618  67.923  0.00  0.00    -0.279 N 
ATOM     11  C   UNL     1     -10.081  17.160  67.527  0.00  0.00    +0.229 C 
ATOM     12  O   UNL     1     -10.944  18.094  67.669  0.00  0.00    -0.275 OA
BRANCH  10  14
ATOM     13  C   UNL     1      -7.858  19.827  67.676  0.00  0.00    +0.023 C 
ATOM     14  C   UNL     1      -8.603  18.904  68.608  0.00  0.00    +0.093 C 
ENDBRANCH  10  14
BRANCH  10  15
ATOM     15  C   UNL     1      -7.781  17.250  66.971  0.00  0.00    +0.093 C 
ATOM     16  C   UNL     1      -6.783  16.238  67.305  0.00  0.00    +0.023 C 
ENDBRANCH  10  15
ENDBRANCH   1  11
BRANCH   2  17
ATOM     17  C   UNL     1     -10.470  16.069  65.240  0.00  0.00    +0.110 C 
ATOM     18  N   UNL     1     -11.426  16.530  64.285  0.00  0.00    -0.131 NA
ENDBRANCH   2  17
TORSDOF 5
ENDMDL
MODEL 4
REMARK VINA RESULT:      -5.0      3.860      6.265
REMARK  Name = 
REMARK  5 active torsions:
REMARK  status: ('A' for Active; 'I' for Inactive)
REMARK    1  A    between atoms: C_2  and  N_3
REMARK    2  A    between atoms: N_3  and  C_4
REMARK    3  A    between atoms: C_6  and  C_8
REMARK    4  A    between atoms: C_8  and  C_9
REMARK    5  A    between atoms: C_16  and  C_17
REMARK                            x       y       z     vdW  Elec       q    Type
REMARK                         _______ _______ _______ _____ _____    ______ ____
ROOT
ATOM      1  C   UNL     1      -8.705  16.016  67.188  0.00  0.00    +0.089 C 
ATOM      2  C   UNL     1      -7.489  14.894  67.356  0.00  0.00    +0.032 C 
ATOM      3  C   UNL     1      -8.456  15.299  68.645  0.00  0.00    +0.015 C 
ENDROOT
BRANCH   1   4
ATOM      4  C   UNL     1      -9.974  15.416  66.734  0.00  0.00    -0.015 A 
ATOM      5  C   UNL     1     -10.296  15.452  65.406  0.00  0.00    -0.004 A 
ATOM      6  C   UNL     1     -11.433  14.846  64.927  0.00  0.00    -0.000 A 
ATOM      7  C   UNL     1     -12.105  13.968  65.760  0.00  0.00    -0.000 A 
ATOM      8  C   UNL     1     -12.021  14.239  67.113  0.00  0.00    -0.000 A 
ATOM      9  C   UNL     1     -10.990  15.031  67.607  0.00  0.00    -0.004 A 
ENDBRANCH   1   4
BRANCH   1  11
ATOM     10  N   UNL     1      -8.823  18.548  67.317  0.00  0.00    -0.279 N 
ATOM     11  C   UNL     1      -8.244  17.303  66.872  0.00  0.00    +0.229 C 
ATOM     12  O   UNL     1      -7.819  17.410  65.670  0.00  0.00    -0.275 OA
BRANCH  10  14
ATOM     13  C   UNL     1     -10.533  19.638  66.028  0.00  0.00    +0.023 C 
ATOM     14  C   UNL     1      -9.064  19.641  66.369  0.00  0.00    +0.093 C 
ENDBRANCH  10  14
BRANCH  10  15
ATOM     15  C   UNL     1      -8.368  18.899  68.617  0.00  0.00    +0.093 C 
ATOM     16  C   UNL     1      -7.061  19.526  68.791  0.00  0.00    +0.023 C 
ENDBRANCH  10  15
ENDBRANCH   1  11
BRANCH   2  17
ATOM     17  C   UNL     1      -6.284  15.965  67.844  0.00  0.00    +0.110 C 
ATOM     18  N   UNL     1      -5.081  15.473  67.254  0.00  0.00    -0.131 NA
ENDBRANCH   2  17
TORSDOF 5
ENDMDL
MODEL 5
REMARK VINA RESULT:      -5.0      2.666      5.021
REMARK  Name = 
REMARK  5 active torsions:
REMARK  status: ('A' for Active; 'I' for Inactive)
REMARK    1  A    between atoms: C_2  and  N_3
REMARK    2  A    between atoms: N_3  and  C_4
REMARK    3  A    between atoms: C_6  and  C_8
REMARK    4  A    between atoms: C_8  and  C_9
REMARK    5  A    between atoms: C_16  and  C_17
REMARK                            x       y       z     vdW  Elec       q    Type
REMARK                         _______ _______ _______ _____ _____    ______ ____
ROOT
ATOM      1  C   UNL     1     -10.558  15.810  66.784  0.00  0.00    +0.089 C 
ATOM      2  C   UNL     1     -10.539  17.257  65.966  0.00  0.00    +0.032 C 
ATOM      3  C   UNL     1      -9.173  16.317  66.061  0.00  0.00    +0.015 C 
ENDROOT
BRANCH   1   4
ATOM      4  C   UNL     1     -10.983  14.681  65.933  0.00  0.00    -0.015 A 
ATOM      5  C   UNL     1     -12.254  14.195  66.049  0.00  0.00    -0.004 A 
ATOM      6  C   UNL     1     -12.717  13.192  65.232  0.00  0.00    -0.000 A 
ATOM      7  C   UNL     1     -11.971  12.869  64.110  0.00  0.00    -0.000 A 
ATOM      8  C   UNL     1     -10.606  13.054  64.222  0.00  0.00    -0.000 A 
ATOM      9  C   UNL     1     -10.091  13.911  65.189  0.00  0.00    -0.004 A 
ENDBRANCH   1   4
BRANCH   1  11
ATOM     10  N   UNL     1     -10.323  15.066  69.199  0.00  0.00    -0.279 N 
ATOM     11  C   UNL     1     -10.805  15.942  68.158  0.00  0.00    +0.229 C 
ATOM     12  O   UNL     1     -11.989  16.347  68.425  0.00  0.00    -0.275 OA
BRANCH  10  14
ATOM     13  C   UNL     1     -11.840  13.286  69.756  0.00  0.00    +0.023 C 
ATOM     14  C   UNL     1     -11.230  14.577  70.243  0.00  0.00    +0.093 C 
ENDBRANCH  10  14
BRANCH  10  15
ATOM     15  C   UNL     1      -8.997  15.398  69.587  0.00  0.00    +0.093 C 
ATOM     16  C   UNL     1      -7.866  14.648  69.048  0.00  0.00    +0.023 C 
ENDBRANCH  10  15
ENDBRANCH   1  11
BRANCH   2  17
ATOM     17  C   UNL     1     -10.043  18.218  67.257  0.00  0.00    +0.110 C 
ATOM     18  N   UNL     1     -10.900  19.360  67.228  0.00  0.00    -0.131 NA
ENDBRANCH   2  17
TORSDOF 5
ENDMDL
MODEL 6
REMARK VINA RESULT:      -4.9      2.093      3.938
REMARK  Name = 
REMARK  5 active torsions:
REMARK  status: ('A' for Active; 'I' for Inactive)
REMARK    1  A    between atoms: C_2  and  N_3
REMARK    2  A    between atoms: N_3  and  C_4
REMARK    3  A    between atoms: C_6  and  C_8
REMARK    4  A    between atoms: C_8  and  C_9
REMARK    5  A    between atoms: C_16  and  C_17
REMARK                            x       y       z     vdW  Elec       q    Type
REMARK                         _______ _______ _______ _____ _____    ______ ____
ROOT
ATOM      1  C   UNL     1     -10.859  12.771  66.837  0.00  0.00    +0.089 C 
ATOM      2  C   UNL     1     -11.375  11.940  65.493  0.00  0.00    +0.032 C 
ATOM      3  C   UNL     1      -9.760  12.022  65.874  0.00  0.00    +0.015 C 
ENDROOT
BRANCH   1   4
ATOM      4  C   UNL     1     -10.857  11.938  68.055  0.00  0.00    -0.015 A 
ATOM      5  C   UNL     1     -11.797  12.159  69.022  0.00  0.00    -0.004 A 
ATOM      6  C   UNL     1     -11.878  11.366  70.140  0.00  0.00    -0.000 A 
ATOM      7  C   UNL     1     -11.174  10.173  70.146  0.00  0.00    -0.000 A 
ATOM      8  C   UNL     1     -10.003  10.163  69.411  0.00  0.00    -0.000 A 
ATOM      9  C   UNL     1      -9.800  11.098  68.401  0.00  0.00    -0.004 A 
ENDBRANCH   1   4
BRANCH   1  11
ATOM     10  N   UNL     1     -10.308  15.193  67.357  0.00  0.00    -0.279 N 
ATOM     11  C   UNL     1     -11.121  14.148  66.783  0.00  0.00    +0.229 C 
ATOM     12  O   UNL     1     -12.363  14.434  66.894  0.00  0.00    -0.275 OA
BRANCH  10  14
ATOM     13  C   UNL     1     -10.734  15.925  69.606  0.00  0.00    +0.023 C 
ATOM     14  C   UNL     1     -10.919  16.266  68.149  0.00  0.00    +0.093 C 
ENDBRANCH  10  14
BRANCH  10  15
ATOM     15  C   UNL     1      -9.231  15.546  66.499  0.00  0.00    +0.093 C 
ATOM     16  C   UNL     1      -7.852  15.375  66.946  0.00  0.00    +0.023 C 
ENDBRANCH  10  15
ENDBRANCH   1  11
BRANCH   2  17
ATOM     17  C   UNL     1     -11.245  13.213  64.399  0.00  0.00    +0.110 C 
ATOM     18  N   UNL     1     -12.367  13.078  63.527  0.00  0.00    -0.131 NA
ENDBRANCH   2  17
TORSDOF 5
ENDMDL
MODEL 7
REMARK VINA RESULT:      -4.9      2.290      3.085
REMARK  Name = 
REMARK  5 active torsions:
REMARK  status: ('A' for Active; 'I' for Inactive)
REMARK    1  A    between atoms: C_2  and  N_3
REMARK    2  A    between atoms: N_3  and  C_4
REMARK    3  A    between atoms: C_6  and  C_8
REMARK    4  A    between atoms: C_8  and  C_9
REMARK    5  A    between atoms: C_16  and  C_17
REMARK                            x       y       z     vdW  Elec       q    Type
REMARK                         _______ _______ _______ _____ _____    ______ ____
ROOT
ATOM      1  C   UNL     1     -11.102  14.565  69.137  0.00  0.00    +0.089 C 
ATOM      2  C   UNL     1      -9.973  15.733  69.490  0.00  0.00    +0.032 C 
ATOM      3  C   UNL     1     -11.371  16.119  68.680  0.00  0.00    +0.015 C 
ENDROOT
BRANCH   1   4
ATOM      4  C   UNL     1     -12.075  14.366  70.229  0.00  0.00    -0.015 A 
ATOM      5  C   UNL     1     -12.321  13.102  70.687  0.00  0.00    -0.004 A 
ATOM      6  C   UNL     1     -13.166  12.875  71.747  0.00  0.00    -0.000 A 
ATOM      7  C   UNL     1     -13.551  13.958  72.518  0.00  0.00    -0.000 A 
ATOM      8  C   UNL     1     -13.633  15.169  71.856  0.00  0.00    -0.000 A 
ATOM      9  C   UNL     1     -12.951  15.362  70.659  0.00  0.00    -0.004 A 
ENDBRANCH   1   4
BRANCH   1  11
ATOM     10  N   UNL     1     -11.400  12.913  67.234  0.00  0.00    -0.279 N 
ATOM     11  C   UNL     1     -10.633  13.573  68.263  0.00  0.00    +0.229 C 
ATOM     12  O   UNL     1      -9.822  12.752  68.815  0.00  0.00    -0.275 OA
BRANCH  10  14
ATOM     13  C   UNL     1     -10.560  11.140  65.845  0.00  0.00    +0.023 C 
ATOM     14  C   UNL     1     -11.355  11.454  67.088  0.00  0.00    +0.093 C 
ENDBRANCH  10  14
BRANCH  10  15
ATOM     15  C   UNL     1     -11.448  13.687  66.042  0.00  0.00    +0.093 C 
ATOM     16  C   UNL     1     -12.735  14.056  65.460  0.00  0.00    +0.023 C 
ENDBRANCH  10  15
ENDBRANCH   1  11
BRANCH   2  17
ATOM     17  C   UNL     1      -9.100  15.617  68.055  0.00  0.00    +0.110 C 
ATOM     18  N   UNL     1      -7.858  16.272  68.315  0.00  0.00    -0.131 NA
ENDBRANCH   2  17
TORSDOF 5
ENDMDL
MODEL 8
REMARK VINA RESULT:      -4.9      3.177      5.257
REMARK  Name = 
REMARK  5 active torsions:
REMARK  status: ('A' for Active; 'I' for Inactive)
REMARK    1  A    between atoms: C_2  and  N_3
REMARK    2  A    between atoms: N_3  and  C_4
REMARK    3  A    between atoms: C_6  and  C_8
REMARK    4  A    between atoms: C_8  and  C_9
REMARK    5  A    between atoms: C_16  and  C_17
REMARK                            x       y       z     vdW  Elec       q    Type
REMARK                         _______ _______ _______ _____ _____    ______ ____
ROOT
ATOM      1  C   UNL     1     -10.836  15.774  68.129  0.00  0.00    +0.089 C 
ATOM      2  C   UNL     1     -11.787  15.660  69.488  0.00  0.00    +0.032 C 
ATOM      3  C   UNL     1     -10.131  15.589  69.600  0.00  0.00    +0.015 C 
ENDROOT
BRANCH   1   4
ATOM      4  C   UNL     1     -10.512  17.170  67.777  0.00  0.00    -0.015 A 
ATOM      5  C   UNL     1     -10.571  17.564  66.470  0.00  0.00    -0.004 A 
ATOM      6  C   UNL     1     -10.345  18.868  66.102  0.00  0.00    -0.000 A 
ATOM      7  C   UNL     1     -10.326  19.832  67.097  0.00  0.00    -0.000 A 
ATOM      8  C   UNL     1      -9.884  19.409  68.336  0.00  0.00    -0.000 A 
ATOM      9  C   UNL     1      -9.903  18.057  68.664  0.00  0.00    -0.004 A 
ENDBRANCH   1   4
BRANCH   1  11
ATOM     10  N   UNL     1     -10.017  14.166  66.345  0.00  0.00    -0.279 N 
ATOM     11  C   UNL     1     -11.020  14.719  67.223  0.00  0.00    +0.229 C 
ATOM     12  O   UNL     1     -12.162  14.738  66.645  0.00  0.00    -0.275 OA
BRANCH  10  14
ATOM     13  C   UNL     1     -10.350  12.428  64.718  0.00  0.00    +0.023 C 
ATOM     14  C   UNL     1     -10.316  13.921  64.930  0.00  0.00    +0.093 C 
ENDBRANCH  10  14
BRANCH  10  15
ATOM     15  C   UNL     1      -9.206  13.210  67.016  0.00  0.00    +0.093 C 
ATOM     16  C   UNL     1      -7.849  13.560  67.425  0.00  0.00    +0.023 C 
ENDBRANCH  10  15
ENDBRANCH   1  11
BRANCH   2  17
ATOM     17  C   UNL     1     -11.922  13.982  69.507  0.00  0.00    +0.110 C 
ATOM     18  N   UNL     1     -12.326  13.651  70.836  0.00  0.00    -0.131 NA
ENDBRANCH   2  17
TORSDOF 5
ENDMDL
MODEL 9
REMARK VINA RESULT:      -4.9      3.179      5.289
REMARK  Name = 
REMARK  5 active torsions:
REMARK  status: ('A' for Active; 'I' for Inactive)
REMARK    1  A    between atoms: C_2  and  N_3
REMARK    2  A    between atoms: N_3  and  C_4
REMARK    3  A    between atoms: C_6  and  C_8
REMARK    4  A    between atoms: C_8  and  C_9
REMARK    5  A    between atoms: C_16  and  C_17
REMARK                            x       y       z     vdW  Elec       q    Type
REMARK                         _______ _______ _______ _____ _____    ______ ____
ROOT
ATOM      1  C   UNL     1     -11.359  14.997  69.122  0.00  0.00    +0.089 C 
ATOM      2  C   UNL     1     -12.095  13.931  68.080  0.00  0.00    +0.032 C 
ATOM      3  C   UNL     1     -10.744  13.486  68.937  0.00  0.00    +0.015 C 
ENDROOT
BRANCH   1   4
ATOM      4  C   UNL     1     -11.937  14.959  70.479  0.00  0.00    -0.015 A 
ATOM      5  C   UNL     1     -11.710  15.998  71.336  0.00  0.00    -0.004 A 
ATOM      6  C   UNL     1     -12.284  16.039  72.584  0.00  0.00    -0.000 A 
ATOM      7  C   UNL     1     -13.310  15.151  72.858  0.00  0.00    -0.000 A 
ATOM      8  C   UNL     1     -13.249  13.938  72.198  0.00  0.00    -0.000 A 
ATOM      9  C   UNL     1     -12.497  13.809  71.035  0.00  0.00    -0.004 A 
ENDBRANCH   1   4
BRANCH   1  11
ATOM     10  N   UNL     1      -9.593  16.796  68.824  0.00  0.00    -0.279 N 
ATOM     11  C   UNL     1     -10.828  16.130  68.487  0.00  0.00    +0.229 C 
ATOM     12  O   UNL     1     -11.718  16.983  68.141  0.00  0.00    -0.275 OA
BRANCH  10  14
ATOM     13  C   UNL     1      -8.590  18.780  67.913  0.00  0.00    +0.023 C 
ATOM     14  C   UNL     1      -9.543  18.255  68.957  0.00  0.00    +0.093 C 
ENDBRANCH  10  14
BRANCH  10  15
ATOM     15  C   UNL     1      -8.475  16.156  68.223  0.00  0.00    +0.093 C 
ATOM     16  C   UNL     1      -7.546  15.382  69.041  0.00  0.00    +0.023 C 
ENDBRANCH  10  15
ENDBRANCH   1  11
BRANCH   2  17
ATOM     17  C   UNL     1     -11.183  14.309  66.717  0.00  0.00    +0.110 C 
ATOM     18  N   UNL     1     -12.091  14.222  65.619  0.00  0.00    -0.131 NA
ENDBRANCH   2  17
TORSDOF 5
ENDMDL
