MODEL 1
REMARK VINA RESULT:      -8.3      0.000      0.000
REMARK  Name = 
REMARK  3 active torsions:
REMARK  status: ('A' for Active; 'I' for Inactive)
REMARK    1  A    between atoms: C_7  and  C_8
REMARK    2  A    between atoms: N_10  and  C_11
REMARK    3  A    between atoms: C_14  and  C_15
REMARK                            x       y       z     vdW  Elec       q    Type
REMARK                         _______ _______ _______ _____ _____    ______ ____
ROOT
ATOM      1  C   UNL     1      -9.705  16.682  66.304  0.00  0.00    +0.073 A 
ATOM      2  C   UNL     1     -10.610  16.287  65.343  0.00  0.00    +0.012 A 
ATOM      3  C   UNL     1     -11.096  14.986  65.310  0.00  0.00    -0.016 A 
ATOM      4  C   UNL     1     -12.062  14.639  64.250  0.00  0.00    +0.031 C 
ATOM      5  C   UNL     1     -10.876  14.128  66.364  0.00  0.00    +0.050 A 
ATOM      6  C   UNL     1     -10.337  14.699  67.510  0.00  0.00    +0.006 A 
ATOM      7  C   UNL     1      -9.586  15.865  67.418  0.00  0.00    +0.017 A 
ENDROOT
BRANCH   5   8
ATOM      8  C   UNL     1     -11.382  12.776  66.384  0.00  0.00    +0.252 C 
ATOM      9  N   UNL     1     -10.550  11.614  66.466  0.00  0.00    -0.255 N 
ATOM     10  C   UNL     1     -10.777  10.859  67.642  0.00  0.00    +0.053 A 
ATOM     11  C   UNL     1      -9.955   9.837  68.083  0.00  0.00    +0.022 A 
ATOM     12  C   UNL     1     -10.171   9.294  69.329  0.00  0.00    +0.011 A 
ATOM     13  C   UNL     1     -10.937   9.989  70.249  0.00  0.00    +0.058 A 
ATOM     14  C   UNL     1     -11.606  11.127  69.821  0.00  0.00    +0.013 A 
ATOM     15 CL   UNL     1     -11.468   9.188  71.725  0.00  0.00    -0.082 Cl
ATOM     16  C   UNL     1      -9.784   8.519  67.090  0.00  0.00    +0.176 C 
ATOM     17  O   UNL     1      -8.566   8.012  67.914  0.00  0.00    -0.218 OA
ATOM     18  C   UNL     1      -8.768   9.383  66.051  0.00  0.00    +0.039 C 
ATOM     19  C   UNL     1      -9.812   9.768  65.010  0.00  0.00    +0.025 C 
ATOM     20  C   UNL     1     -11.780  11.362  68.462  0.00  0.00    +0.016 A 
ATOM     21  C   UNL     1     -10.062  11.236  65.150  0.00  0.00    +0.099 C 
ATOM     22  O   UNL     1     -12.555  12.561  65.952  0.00  0.00    -0.270 OA
ENDBRANCH   5   8
BRANCH   1  24
ATOM     23  C   UNL     1      -8.967  19.016  66.129  0.00  0.00    +0.269 C 
ATOM     24  N   UNL     1      -8.699  17.637  65.948  0.00  0.00    -0.175 NA
ATOM     25  O   UNL     1     -10.137  19.435  66.002  0.00  0.00    -0.268 OA
BRANCH  23  28
ATOM     26  C   UNL     1      -8.265  19.312  68.809  0.00  0.00    +0.031 C 
ATOM     27  C   UNL     1      -7.445  19.995  67.762  0.00  0.00    -0.017 A 
ATOM     28  C   UNL     1      -7.848  19.909  66.438  0.00  0.00    +0.051 A 
ATOM     29  C   UNL     1      -6.879  20.046  65.454  0.00  0.00    +0.004 A 
ATOM     30  C   UNL     1      -5.553  20.318  65.770  0.00  0.00    +0.000 A 
ATOM     31  C   UNL     1      -5.309  20.710  67.078  0.00  0.00    -0.000 A 
ATOM     32  C   UNL     1      -6.189  20.455  68.107  0.00  0.00    -0.004 A 
ENDBRANCH  23  28
ENDBRANCH   1  24
TORSDOF 3
ENDMDL
MODEL 2
REMARK VINA RESULT:      -8.2      4.588     10.631
REMARK  Name = 
REMARK  3 active torsions:
REMARK  status: ('A' for Active; 'I' for Inactive)
REMARK    1  A    between atoms: C_7  and  C_8
REMARK    2  A    between atoms: N_10  and  C_11
REMARK    3  A    between atoms: C_14  and  C_15
REMARK                            x       y       z     vdW  Elec       q    Type
REMARK                         _______ _______ _______ _____ _____    ______ ____
ROOT
ATOM      1  C   UNL     1     -10.865   6.366  68.834  0.00  0.00    +0.073 A 
ATOM      2  C   UNL     1     -10.897   7.524  69.580  0.00  0.00    +0.012 A 
ATOM      3  C   UNL     1     -10.422   8.722  69.061  0.00  0.00    -0.016 A 
ATOM      4  C   UNL     1     -10.487   9.918  69.922  0.00  0.00    +0.031 C 
ATOM      5  C   UNL     1     -10.129   8.839  67.722  0.00  0.00    +0.050 A 
ATOM      6  C   UNL     1     -10.529   7.779  66.917  0.00  0.00    +0.006 A 
ATOM      7  C   UNL     1     -10.691   6.513  67.467  0.00  0.00    +0.017 A 
ENDROOT
BRANCH   5   8
ATOM      8  C   UNL     1      -9.656  10.070  67.134  0.00  0.00    +0.252 C 
ATOM      9  N   UNL     1     -10.404  10.841  66.187  0.00  0.00    -0.255 N 
ATOM     10  C   UNL     1     -10.725  12.134  66.666  0.00  0.00    +0.053 A 
ATOM     11  C   UNL     1     -11.633  12.986  66.061  0.00  0.00    +0.022 A 
ATOM     12  C   UNL     1     -12.000  14.142  66.710  0.00  0.00    +0.011 A 
ATOM     13  C   UNL     1     -11.760  14.266  68.067  0.00  0.00    +0.058 A 
ATOM     14  C   UNL     1     -10.997  13.288  68.691  0.00  0.00    +0.013 A 
ATOM     15 CL   UNL     1     -11.948  15.833  68.848  0.00  0.00    -0.082 Cl
ATOM     16  C   UNL     1     -11.296  13.478  64.513  0.00  0.00    +0.176 C 
ATOM     17  O   UNL     1     -12.744  14.017  64.332  0.00  0.00    -0.218 OA
ATOM     18  C   UNL     1     -11.742  11.970  63.893  0.00  0.00    +0.039 C 
ATOM     19  C   UNL     1     -10.345  11.369  63.781  0.00  0.00    +0.025 C 
ATOM     20  C   UNL     1     -10.223  12.420  67.930  0.00  0.00    +0.016 A 
ATOM     21  C   UNL     1     -10.223  10.322  64.842  0.00  0.00    +0.099 C 
ATOM     22  O   UNL     1      -8.411  10.311  67.151  0.00  0.00    -0.270 OA
ENDBRANCH   5   8
BRANCH   1  24
ATOM     23  C   UNL     1      -9.544   5.036  70.419  0.00  0.00    +0.269 C 
ATOM     24  N   UNL     1     -10.623   5.124  69.505  0.00  0.00    -0.175 NA
ATOM     25  O   UNL     1      -8.517   5.719  70.222  0.00  0.00    -0.268 OA
BRANCH  23  28
ATOM     26  C   UNL     1     -10.872   5.977  72.681  0.00  0.00    +0.031 C 
ATOM     27  C   UNL     1     -10.397   4.560  72.652  0.00  0.00    -0.017 A 
ATOM     28  C   UNL     1      -9.668   4.123  71.557  0.00  0.00    +0.051 A 
ATOM     29  C   UNL     1      -9.692   2.767  71.259  0.00  0.00    +0.004 A 
ATOM     30  C   UNL     1     -10.375   1.858  72.058  0.00  0.00    +0.000 A 
ATOM     31  C   UNL     1     -10.791   2.330  73.294  0.00  0.00    -0.000 A 
ATOM     32  C   UNL     1     -10.920   3.673  73.572  0.00  0.00    -0.004 A 
ENDBRANCH  23  28
ENDBRANCH   1  24
TORSDOF 3
ENDMDL
MODEL 3
REMARK VINA RESULT:      -8.2      2.372      3.311
REMARK  Name = 
REMARK  3 active torsions:
REMARK  status: ('A' for Active; 'I' for Inactive)
REMARK    1  A    between atoms: C_7  and  C_8
REMARK    2  A    between atoms: N_10  and  C_11
REMARK    3  A    between atoms: C_14  and  C_15
REMARK                            x       y       z     vdW  Elec       q    Type
REMARK                         _______ _______ _______ _____ _____    ______ ____
ROOT
ATOM      1  C   UNL     1     -11.687  15.188  68.669  0.00  0.00    +0.073 A 
ATOM      2  C   UNL     1     -11.660  14.565  67.440  0.00  0.00    +0.012 A 
ATOM      3  C   UNL     1     -11.361  13.212  67.330  0.00  0.00    -0.016 A 
ATOM      4  C   UNL     1     -11.350  12.618  65.980  0.00  0.00    +0.031 C 
ATOM      5  C   UNL     1     -11.318  12.411  68.448  0.00  0.00    +0.050 A 
ATOM      6  C   UNL     1     -11.785  12.983  69.625  0.00  0.00    +0.006 A 
ATOM      7  C   UNL     1     -11.766  14.363  69.781  0.00  0.00    +0.017 A 
ENDROOT
BRANCH   5   8
ATOM      8  C   UNL     1     -11.035  10.997  68.380  0.00  0.00    +0.252 C 
ATOM      9  N   UNL     1      -9.774  10.417  68.733  0.00  0.00    -0.255 N 
ATOM     10  C   UNL     1      -9.870   9.525  69.829  0.00  0.00    +0.053 A 
ATOM     11  C   UNL     1      -8.781   9.020  70.519  0.00  0.00    +0.022 A 
ATOM     12  C   UNL     1      -8.995   8.307  71.677  0.00  0.00    +0.011 A 
ATOM     13  C   UNL     1     -10.216   8.409  72.322  0.00  0.00    +0.058 A 
ATOM     14  C   UNL     1     -11.242   9.090  71.682  0.00  0.00    +0.013 A 
ATOM     15 CL   UNL     1     -10.611   7.290  73.623  0.00  0.00    -0.082 Cl
ATOM     16  C   UNL     1      -7.705   8.092  69.664  0.00  0.00    +0.176 C 
ATOM     17  O   UNL     1      -6.659   8.185  70.811  0.00  0.00    -0.218 OA
ATOM     18  C   UNL     1      -7.058   9.462  68.914  0.00  0.00    +0.039 C 
ATOM     19  C   UNL     1      -7.843   9.378  67.610  0.00  0.00    +0.025 C 
ATOM     20  C   UNL     1     -11.158   9.354  70.320  0.00  0.00    +0.016 A 
ATOM     21  C   UNL     1      -8.844  10.489  67.620  0.00  0.00    +0.099 C 
ATOM     22  O   UNL     1     -11.770  10.266  67.649  0.00  0.00    -0.270 OA
ENDBRANCH   5   8
BRANCH   1  24
ATOM     23  C   UNL     1      -9.864  16.821  68.852  0.00  0.00    +0.269 C 
ATOM     24  N   UNL     1     -11.251  16.549  68.758  0.00  0.00    -0.175 NA
ATOM     25  O   UNL     1      -9.118  16.008  69.437  0.00  0.00    -0.268 OA
BRANCH  23  28
ATOM     26  C   UNL     1      -8.736  16.694  66.308  0.00  0.00    +0.031 C 
ATOM     27  C   UNL     1      -8.870  18.023  66.979  0.00  0.00    -0.017 A 
ATOM     28  C   UNL     1      -9.358  18.069  68.276  0.00  0.00    +0.051 A 
ATOM     29  C   UNL     1      -9.978  19.238  68.696  0.00  0.00    +0.004 A 
ATOM     30  C   UNL     1     -10.063  20.354  67.872  0.00  0.00    +0.000 A 
ATOM     31  C   UNL     1      -9.270  20.330  66.735  0.00  0.00    -0.000 A 
ATOM     32  C   UNL     1      -8.762  19.163  66.207  0.00  0.00    -0.004 A 
ENDBRANCH  23  28
ENDBRANCH   1  24
TORSDOF 3
ENDMDL
MODEL 4
REMARK VINA RESULT:      -8.2      1.392      1.505
REMARK  Name = 
REMARK  3 active torsions:
REMARK  status: ('A' for Active; 'I' for Inactive)
REMARK    1  A    between atoms: C_7  and  C_8
REMARK    2  A    between atoms: N_10  and  C_11
REMARK    3  A    between atoms: C_14  and  C_15
REMARK                            x       y       z     vdW  Elec       q    Type
REMARK                         _______ _______ _______ _____ _____    ______ ____
ROOT
ATOM      1  C   UNL     1     -10.588  17.008  67.827  0.00  0.00    +0.073 A 
ATOM      2  C   UNL     1     -10.595  16.475  66.555  0.00  0.00    +0.012 A 
ATOM      3  C   UNL     1     -10.707  15.105  66.355  0.00  0.00    -0.016 A 
ATOM      4  C   UNL     1     -10.706  14.610  64.966  0.00  0.00    +0.031 C 
ATOM      5  C   UNL     1     -11.049  14.270  67.395  0.00  0.00    +0.050 A 
ATOM      6  C   UNL     1     -11.467  14.894  68.563  0.00  0.00    +0.006 A 
ATOM      7  C   UNL     1     -11.052  16.190  68.845  0.00  0.00    +0.017 A 
ENDROOT
BRANCH   5   8
ATOM      8  C   UNL     1     -11.200  12.844  67.228  0.00  0.00    +0.252 C 
ATOM      9  N   UNL     1     -10.190  11.889  67.572  0.00  0.00    -0.255 N 
ATOM     10  C   UNL     1     -10.602  11.000  68.595  0.00  0.00    +0.053 A 
ATOM     11  C   UNL     1      -9.751  10.147  69.275  0.00  0.00    +0.022 A 
ATOM     12  C   UNL     1     -10.225   9.461  70.369  0.00  0.00    +0.011 A 
ATOM     13  C   UNL     1     -11.390   9.885  70.986  0.00  0.00    +0.058 A 
ATOM     14  C   UNL     1     -12.132  10.884  70.370  0.00  0.00    +0.013 A 
ATOM     15 CL   UNL     1     -12.166   8.859  72.187  0.00  0.00    -0.082 Cl
ATOM     16  C   UNL     1      -8.961   8.993  68.383  0.00  0.00    +0.176 C 
ATOM     17  O   UNL     1      -7.993   8.693  69.563  0.00  0.00    -0.218 OA
ATOM     18  C   UNL     1      -7.897  10.148  67.757  0.00  0.00    +0.039 C 
ATOM     19  C   UNL     1      -8.606  10.387  66.428  0.00  0.00    +0.025 C 
ATOM     20  C   UNL     1     -11.906  11.195  69.035  0.00  0.00    +0.016 A 
ATOM     21  C   UNL     1      -9.227  11.746  66.493  0.00  0.00    +0.099 C 
ATOM     22  O   UNL     1     -12.083  12.417  66.424  0.00  0.00    -0.270 OA
ENDBRANCH   5   8
BRANCH   1  24
ATOM     23  C   UNL     1      -8.419  18.148  67.677  0.00  0.00    +0.269 C 
ATOM     24  N   UNL     1      -9.777  18.159  68.083  0.00  0.00    -0.175 NA
ATOM     25  O   UNL     1      -7.789  17.069  67.678  0.00  0.00    -0.268 OA
BRANCH  23  28
ATOM     26  C   UNL     1      -6.817  19.416  69.571  0.00  0.00    +0.031 C 
ATOM     27  C   UNL     1      -6.933  20.007  68.202  0.00  0.00    -0.017 A 
ATOM     28  C   UNL     1      -7.795  19.415  67.292  0.00  0.00    +0.051 A 
ATOM     29  C   UNL     1      -7.528  19.585  65.940  0.00  0.00    +0.004 A 
ATOM     30  C   UNL     1      -6.468  20.367  65.500  0.00  0.00    +0.000 A 
ATOM     31  C   UNL     1      -5.871  21.175  66.456  0.00  0.00    -0.000 A 
ATOM     32  C   UNL     1      -5.997  20.942  67.809  0.00  0.00    -0.004 A 
ENDBRANCH  23  28
ENDBRANCH   1  24
TORSDOF 3
ENDMDL
MODEL 5
REMARK VINA RESULT:      -8.0      1.169      1.785
REMARK  Name = 
REMARK  3 active torsions:
REMARK  status: ('A' for Active; 'I' for Inactive)
REMARK    1  A    between atoms: C_7  and  C_8
REMARK    2  A    between atoms: N_10  and  C_11
REMARK    3  A    between atoms: C_14  and  C_15
REMARK                            x       y       z     vdW  Elec       q    Type
REMARK                         _______ _______ _______ _____ _____    ______ ____
ROOT
ATOM      1  C   UNL     1      -9.302  17.118  67.315  0.00  0.00    +0.073 A 
ATOM      2  C   UNL     1      -9.986  16.880  66.142  0.00  0.00    +0.012 A 
ATOM      3  C   UNL     1     -10.596  15.655  65.905  0.00  0.00    -0.016 A 
ATOM      4  C   UNL     1     -11.308  15.476  64.626  0.00  0.00    +0.031 C 
ATOM      5  C   UNL     1     -10.737  14.734  66.919  0.00  0.00    +0.050 A 
ATOM      6  C   UNL     1     -10.431  15.185  68.197  0.00  0.00    +0.006 A 
ATOM      7  C   UNL     1      -9.552  16.248  68.365  0.00  0.00    +0.017 A 
ENDROOT
BRANCH   5   8
ATOM      8  C   UNL     1     -11.385  13.458  66.726  0.00  0.00    +0.252 C 
ATOM      9  N   UNL     1     -10.680  12.225  66.546  0.00  0.00    -0.255 N 
ATOM     10  C   UNL     1     -10.939  11.292  67.579  0.00  0.00    +0.053 A 
ATOM     11  C   UNL     1     -10.214  10.129  67.779  0.00  0.00    +0.022 A 
ATOM     12  C   UNL     1     -10.437   9.389  68.917  0.00  0.00    +0.011 A 
ATOM     13  C   UNL     1     -11.086   9.972  69.991  0.00  0.00    +0.058 A 
ATOM     14  C   UNL     1     -11.646  11.231  69.816  0.00  0.00    +0.013 A 
ATOM     15 CL   UNL     1     -11.640   8.968  71.327  0.00  0.00    -0.082 Cl
ATOM     16  C   UNL     1     -10.226   9.008  66.556  0.00  0.00    +0.176 C 
ATOM     17  O   UNL     1      -9.037   8.240  67.201  0.00  0.00    -0.218 OA
ATOM     18  C   UNL     1      -9.166   9.945  65.632  0.00  0.00    +0.039 C 
ATOM     19  C   UNL     1     -10.204  10.618  64.740  0.00  0.00    +0.025 C 
ATOM     20  C   UNL     1     -11.848  11.729  68.534  0.00  0.00    +0.016 A 
ATOM     21  C   UNL     1     -10.289  12.052  65.158  0.00  0.00    +0.099 C 
ATOM     22  O   UNL     1     -12.590  13.444  66.332  0.00  0.00    -0.270 OA
ENDBRANCH   5   8
BRANCH   1  24
ATOM     23  C   UNL     1      -8.040  19.040  68.172  0.00  0.00    +0.269 C 
ATOM     24  N   UNL     1      -8.138  17.950  67.273  0.00  0.00    -0.175 NA
ATOM     25  O   UNL     1      -9.079  19.633  68.531  0.00  0.00    -0.268 OA
BRANCH  23  28
ATOM     26  C   UNL     1      -6.609  20.804  66.558  0.00  0.00    +0.031 C 
ATOM     27  C   UNL     1      -6.031  20.387  67.873  0.00  0.00    -0.017 A 
ATOM     28  C   UNL     1      -6.711  19.448  68.632  0.00  0.00    +0.051 A 
ATOM     29  C   UNL     1      -6.509  19.454  70.006  0.00  0.00    +0.004 A 
ATOM     30  C   UNL     1      -5.615  20.331  70.607  0.00  0.00    +0.000 A 
ATOM     31  C   UNL     1      -4.749  20.996  69.751  0.00  0.00    -0.000 A 
ATOM     32  C   UNL     1      -4.998  21.135  68.403  0.00  0.00    -0.004 A 
ENDBRANCH  23  28
ENDBRANCH   1  24
TORSDOF 3
ENDMDL
MODEL 6
REMARK VINA RESULT:      -7.8      2.899      4.857
REMARK  Name = 
REMARK  3 active torsions:
REMARK  status: ('A' for Active; 'I' for Inactive)
REMARK    1  A    between atoms: C_7  and  C_8
REMARK    2  A    between atoms: N_10  and  C_11
REMARK    3  A    between atoms: C_14  and  C_15
REMARK                            x       y       z     vdW  Elec       q    Type
REMARK                         _______ _______ _______ _____ _____    ______ ____
ROOT
ATOM      1  C   UNL     1      -5.651  18.364  67.377  0.00  0.00    +0.073 A 
ATOM      2  C   UNL     1      -6.221  17.438  68.224  0.00  0.00    +0.012 A 
ATOM      3  C   UNL     1      -7.549  17.058  68.077  0.00  0.00    -0.016 A 
ATOM      4  C   UNL     1      -8.088  16.062  69.023  0.00  0.00    +0.031 C 
ATOM      5  C   UNL     1      -8.260  17.411  66.953  0.00  0.00    +0.050 A 
ATOM      6  C   UNL     1      -7.521  17.970  65.917  0.00  0.00    +0.006 A 
ATOM      7  C   UNL     1      -6.321  18.616  66.191  0.00  0.00    +0.017 A 
ENDROOT
BRANCH   5   8
ATOM      8  C   UNL     1      -9.634  17.019  66.746  0.00  0.00    +0.252 C 
ATOM      9  N   UNL     1     -10.067  15.658  66.638  0.00  0.00    -0.255 N 
ATOM     10  C   UNL     1     -10.959  15.284  67.672  0.00  0.00    +0.053 A 
ATOM     11  C   UNL     1     -11.336  13.980  67.942  0.00  0.00    +0.022 A 
ATOM     12  C   UNL     1     -12.064  13.716  69.079  0.00  0.00    +0.011 A 
ATOM     13  C   UNL     1     -12.097  14.652  70.098  0.00  0.00    +0.058 A 
ATOM     14  C   UNL     1     -11.538  15.900  69.861  0.00  0.00    +0.013 A 
ATOM     15 CL   UNL     1     -13.248  14.466  71.418  0.00  0.00    -0.082 Cl
ATOM     16  C   UNL     1     -12.142  13.160  66.745  0.00  0.00    +0.176 C 
ATOM     17  O   UNL     1     -11.927  11.806  67.480  0.00  0.00    -0.218 OA
ATOM     18  C   UNL     1     -10.711  12.953  65.869  0.00  0.00    +0.039 C 
ATOM     19  C   UNL     1     -10.888  14.116  64.900  0.00  0.00    +0.025 C 
ATOM     20  C   UNL     1     -11.272  16.307  68.559  0.00  0.00    +0.016 A 
ATOM     21  C   UNL     1      -9.896  15.169  65.281  0.00  0.00    +0.099 C 
ATOM     22  O   UNL     1     -10.445  17.874  66.279  0.00  0.00    -0.270 OA
ENDBRANCH   5   8
BRANCH   1  24
ATOM     23  C   UNL     1      -5.105  20.421  68.600  0.00  0.00    +0.269 C 
ATOM     24  N   UNL     1      -4.672  19.265  67.907  0.00  0.00    -0.175 NA
ATOM     25  O   UNL     1      -6.176  20.970  68.266  0.00  0.00    -0.268 OA
BRANCH  23  28
ATOM     26  C   UNL     1      -5.894  19.892  71.220  0.00  0.00    +0.031 C 
ATOM     27  C   UNL     1      -4.608  20.616  70.978  0.00  0.00    -0.017 A 
ATOM     28  C   UNL     1      -4.263  20.946  69.677  0.00  0.00    +0.051 A 
ATOM     29  C   UNL     1      -2.915  21.106  69.383  0.00  0.00    +0.004 A 
ATOM     30  C   UNL     1      -1.938  20.997  70.364  0.00  0.00    +0.000 A 
ATOM     31  C   UNL     1      -2.391  20.994  71.675  0.00  0.00    -0.000 A 
ATOM     32  C   UNL     1      -3.693  20.692  72.010  0.00  0.00    -0.004 A 
ENDBRANCH  23  28
ENDBRANCH   1  24
TORSDOF 3
ENDMDL
MODEL 7
REMARK VINA RESULT:      -7.7      4.893     10.450
REMARK  Name = 
REMARK  3 active torsions:
REMARK  status: ('A' for Active; 'I' for Inactive)
REMARK    1  A    between atoms: C_7  and  C_8
REMARK    2  A    between atoms: N_10  and  C_11
REMARK    3  A    between atoms: C_14  and  C_15
REMARK                            x       y       z     vdW  Elec       q    Type
REMARK                         _______ _______ _______ _____ _____    ______ ____
ROOT
ATOM      1  C   UNL     1     -10.049   7.935  72.491  0.00  0.00    +0.073 A 
ATOM      2  C   UNL     1     -11.422   7.916  72.604  0.00  0.00    +0.012 A 
ATOM      3  C   UNL     1     -12.201   8.912  72.028  0.00  0.00    -0.016 A 
ATOM      4  C   UNL     1     -13.664   8.824  72.193  0.00  0.00    +0.031 C 
ATOM      5  C   UNL     1     -11.650   9.805  71.137  0.00  0.00    +0.050 A 
ATOM      6  C   UNL     1     -10.360   9.519  70.708  0.00  0.00    +0.006 A 
ATOM      7  C   UNL     1      -9.519   8.750  71.503  0.00  0.00    +0.017 A 
ENDROOT
BRANCH   5   8
ATOM      8  C   UNL     1     -12.425  10.840  70.495  0.00  0.00    +0.252 C 
ATOM      9  N   UNL     1     -12.396  12.217  70.887  0.00  0.00    -0.255 N 
ATOM     10  C   UNL     1     -11.909  13.067  69.864  0.00  0.00    +0.053 A 
ATOM     11  C   UNL     1     -11.555  14.392  70.055  0.00  0.00    +0.022 A 
ATOM     12  C   UNL     1     -10.926  15.069  69.036  0.00  0.00    +0.011 A 
ATOM     13  C   UNL     1     -10.340  14.356  68.005  0.00  0.00    +0.058 A 
ATOM     14  C   UNL     1     -10.560  12.986  67.946  0.00  0.00    +0.013 A 
ATOM     15 CL   UNL     1      -9.797  15.199  66.557  0.00  0.00    -0.082 Cl
ATOM     16  C   UNL     1     -12.746  15.431  70.559  0.00  0.00    +0.176 C 
ATOM     17  O   UNL     1     -11.694  16.520  70.914  0.00  0.00    -0.218 OA
ATOM     18  C   UNL     1     -12.682  14.806  72.129  0.00  0.00    +0.039 C 
ATOM     19  C   UNL     1     -13.860  13.844  72.019  0.00  0.00    +0.025 C 
ATOM     20  C   UNL     1     -11.596  12.417  68.677  0.00  0.00    +0.016 A 
ATOM     21  C   UNL     1     -13.302  12.456  71.997  0.00  0.00    +0.099 C 
ATOM     22  O   UNL     1     -13.438  10.504  69.811  0.00  0.00    -0.270 OA
ENDBRANCH   5   8
BRANCH   1  24
ATOM     23  C   UNL     1      -8.433   6.326  73.398  0.00  0.00    +0.269 C 
ATOM     24  N   UNL     1      -9.264   7.457  73.589  0.00  0.00    -0.175 NA
ATOM     25  O   UNL     1      -8.784   5.435  72.596  0.00  0.00    -0.268 OA
BRANCH  23  28
ATOM     26  C   UNL     1      -6.118   7.360  72.243  0.00  0.00    +0.031 C 
ATOM     27  C   UNL     1      -6.058   6.818  73.635  0.00  0.00    -0.017 A 
ATOM     28  C   UNL     1      -7.193   6.233  74.172  0.00  0.00    +0.051 A 
ATOM     29  C   UNL     1      -7.329   6.226  75.554  0.00  0.00    +0.004 A 
ATOM     30  C   UNL     1      -6.339   6.736  76.386  0.00  0.00    +0.000 A 
ATOM     31  C   UNL     1      -5.116   6.994  75.785  0.00  0.00    -0.000 A 
ATOM     32  C   UNL     1      -4.975   7.154  74.424  0.00  0.00    -0.004 A 
ENDBRANCH  23  28
ENDBRANCH   1  24
TORSDOF 3
ENDMDL
MODEL 8
REMARK VINA RESULT:      -7.7      2.381      4.177
REMARK  Name = 
REMARK  3 active torsions:
REMARK  status: ('A' for Active; 'I' for Inactive)
REMARK    1  A    between atoms: C_7  and  C_8
REMARK    2  A    between atoms: N_10  and  C_11
REMARK    3  A    between atoms: C_14  and  C_15
REMARK                            x       y       z     vdW  Elec       q    Type
REMARK                         _______ _______ _______ _____ _____    ______ ____
ROOT
ATOM      1  C   UNL     1      -6.718  18.158  68.847  0.00  0.00    +0.073 A 
ATOM      2  C   UNL     1      -7.776  18.981  68.523  0.00  0.00    +0.012 A 
ATOM      3  C   UNL     1      -8.998  18.451  68.129  0.00  0.00    -0.016 A 
ATOM      4  C   UNL     1     -10.082  19.396  67.797  0.00  0.00    +0.031 C 
ATOM      5  C   UNL     1      -9.261  17.108  68.276  0.00  0.00    +0.050 A 
ATOM      6  C   UNL     1      -8.334  16.385  69.015  0.00  0.00    +0.006 A 
ATOM      7  C   UNL     1      -7.022  16.831  69.111  0.00  0.00    +0.017 A 
ENDROOT
BRANCH   5   8
ATOM      8  C   UNL     1     -10.526  16.519  67.903  0.00  0.00    +0.252 C 
ATOM      9  N   UNL     1     -10.659  15.447  66.962  0.00  0.00    -0.255 N 
ATOM     10  C   UNL     1     -11.200  14.274  67.543  0.00  0.00    +0.053 A 
ATOM     11  C   UNL     1     -11.211  13.035  66.927  0.00  0.00    +0.022 A 
ATOM     12  C   UNL     1     -11.598  11.931  67.652  0.00  0.00    +0.011 A 
ATOM     13  C   UNL     1     -11.617  11.998  69.034  0.00  0.00    +0.058 A 
ATOM     14  C   UNL     1     -11.413  13.234  69.635  0.00  0.00    +0.013 A 
ATOM     15 CL   UNL     1     -12.383  10.712  69.961  0.00  0.00    -0.082 Cl
ATOM     16  C   UNL     1     -12.055  12.901  65.504  0.00  0.00    +0.176 C 
ATOM     17  O   UNL     1     -11.391  11.528  65.199  0.00  0.00    -0.218 OA
ATOM     18  C   UNL     1     -10.838  13.717  64.660  0.00  0.00    +0.039 C 
ATOM     19  C   UNL     1     -11.475  15.103  64.663  0.00  0.00    +0.025 C 
ATOM     20  C   UNL     1     -11.533  14.398  68.886  0.00  0.00    +0.016 A 
ATOM     21  C   UNL     1     -10.682  15.956  65.602  0.00  0.00    +0.099 C 
ATOM     22  O   UNL     1     -11.588  17.179  68.111  0.00  0.00    -0.270 OA
ENDBRANCH   5   8
BRANCH   1  24
ATOM     23  C   UNL     1      -4.972  18.553  67.168  0.00  0.00    +0.269 C 
ATOM     24  N   UNL     1      -5.392  18.587  68.521  0.00  0.00    -0.175 NA
ATOM     25  O   UNL     1      -5.425  17.672  66.408  0.00  0.00    -0.268 OA
BRANCH  23  28
ATOM     26  C   UNL     1      -5.959  20.856  65.949  0.00  0.00    +0.031 C 
ATOM     27  C   UNL     1      -4.488  20.729  66.183  0.00  0.00    -0.017 A 
ATOM     28  C   UNL     1      -3.997  19.548  66.716  0.00  0.00    +0.051 A 
ATOM     29  C   UNL     1      -2.799  19.600  67.417  0.00  0.00    +0.004 A 
ATOM     30  C   UNL     1      -2.077  20.781  67.539  0.00  0.00    +0.000 A 
ATOM     31  C   UNL     1      -2.469  21.820  66.708  0.00  0.00    -0.000 A 
ATOM     32  C   UNL     1      -3.712  21.870  66.115  0.00  0.00    -0.004 A 
ENDBRANCH  23  28
ENDBRANCH   1  24
TORSDOF 3
ENDMDL
MODEL 9
REMARK VINA RESULT:      -7.7      3.393      9.420
REMARK  Name = 
REMARK  3 active torsions:
REMARK  status: ('A' for Active; 'I' for Inactive)
REMARK    1  A    between atoms: C_7  and  C_8
REMARK    2  A    between atoms: N_10  and  C_11
REMARK    3  A    between atoms: C_14  and  C_15
REMARK                            x       y       z     vdW  Elec       q    Type
REMARK                         _______ _______ _______ _____ _____    ______ ____
ROOT
ATOM      1  C   UNL     1     -10.223  13.828  68.300  0.00  0.00    +0.073 A 
ATOM      2  C   UNL     1     -10.241  15.193  68.487  0.00  0.00    +0.012 A 
ATOM      3  C   UNL     1      -9.089  15.952  68.326  0.00  0.00    -0.016 A 
ATOM      4  C   UNL     1      -9.187  17.407  68.545  0.00  0.00    +0.031 C 
ATOM      5  C   UNL     1      -7.964  15.406  67.751  0.00  0.00    +0.050 A 
ATOM      6  C   UNL     1      -8.125  14.154  67.170  0.00  0.00    +0.006 A 
ATOM      7  C   UNL     1      -9.138  13.310  67.609  0.00  0.00    +0.017 A 
ENDROOT
BRANCH   5   8
ATOM      8  C   UNL     1      -6.752  16.163  67.541  0.00  0.00    +0.252 C 
ATOM      9  N   UNL     1      -6.730  17.542  67.155  0.00  0.00    -0.255 N 
ATOM     10  C   UNL     1      -6.124  18.373  68.129  0.00  0.00    +0.053 A 
ATOM     11  C   UNL     1      -6.186  19.755  68.120  0.00  0.00    +0.022 A 
ATOM     12  C   UNL     1      -5.716  20.453  69.209  0.00  0.00    +0.011 A 
ATOM     13  C   UNL     1      -5.535  19.793  70.412  0.00  0.00    +0.058 A 
ATOM     14  C   UNL     1      -5.666  18.411  70.430  0.00  0.00    +0.013 A 
ATOM     15 CL   UNL     1      -4.664  20.587  71.721  0.00  0.00    -0.082 Cl
ATOM     16  C   UNL     1      -5.515  20.536  66.818  0.00  0.00    +0.176 C 
ATOM     17  O   UNL     1      -6.210  21.870  67.216  0.00  0.00    -0.218 OA
ATOM     18  C   UNL     1      -6.823  20.106  65.837  0.00  0.00    +0.039 C 
ATOM     19  C   UNL     1      -6.191  18.892  65.166  0.00  0.00    +0.025 C 
ATOM     20  C   UNL     1      -5.636  17.695  69.239  0.00  0.00    +0.016 A 
ATOM     21  C   UNL     1      -6.868  17.676  65.715  0.00  0.00    +0.099 C 
ATOM     22  O   UNL     1      -5.673  15.533  67.325  0.00  0.00    -0.270 OA
ENDBRANCH   5   8
BRANCH   1  24
ATOM     23  C   UNL     1     -11.612  11.823  68.581  0.00  0.00    +0.269 C 
ATOM     24  N   UNL     1     -11.063  13.011  69.123  0.00  0.00    -0.175 NA
ATOM     25  O   UNL     1     -11.890  11.777  67.364  0.00  0.00    -0.268 OA
BRANCH  23  28
ATOM     26  C   UNL     1      -9.476  10.111  69.096  0.00  0.00    +0.031 C 
ATOM     27  C   UNL     1     -10.775   9.887  69.802  0.00  0.00    -0.017 A 
ATOM     28  C   UNL     1     -11.856  10.694  69.480  0.00  0.00    +0.051 A 
ATOM     29  C   UNL     1     -12.841  10.872  70.441  0.00  0.00    +0.004 A 
ATOM     30  C   UNL     1     -12.788  10.224  71.669  0.00  0.00    +0.000 A 
ATOM     31  C   UNL     1     -11.860   9.198  71.774  0.00  0.00    -0.000 A 
ATOM     32  C   UNL     1     -10.783   9.080  70.923  0.00  0.00    -0.004 A 
ENDBRANCH  23  28
ENDBRANCH   1  24
TORSDOF 3
ENDMDL
