MODEL 1
REMARK VINA RESULT:      -4.5      0.000      0.000
REMARK  Name = 
REMARK  1 active torsions:
REMARK  status: ('A' for Active; 'I' for Inactive)
REMARK    1  A    between atoms: C_4  and  C_5
REMARK                            x       y       z     vdW  Elec       q    Type
REMARK                         _______ _______ _______ _____ _____    ______ ____
ROOT
ATOM      1  C   UNL     1     -12.505  15.384  70.701  0.00  0.00    -0.021 A 
ATOM      2  C   UNL     1     -11.655  16.012  71.607  0.00  0.00    -0.004 A 
ATOM      3  C   UNL     1     -12.112  16.222  72.895  0.00  0.00    -0.000 A 
ATOM      4  C   UNL     1     -13.414  15.797  73.221  0.00  0.00    -0.000 A 
ATOM      5  C   UNL     1     -13.800  14.718  72.406  0.00  0.00    -0.000 A 
ATOM      6  C   UNL     1     -13.736  15.070  71.051  0.00  0.00    -0.004 A 
ENDROOT
BRANCH   1   9
ATOM      7  N   UNL     1     -11.972  13.219  69.810  0.00  0.00    -0.133 NA
ATOM      8  C   UNL     1     -11.585  14.139  68.583  0.00  0.00    +0.096 C 
ATOM      9  C   UNL     1     -12.023  15.701  69.201  0.00  0.00    +0.041 C 
ATOM     10  C   UNL     1     -10.417  15.098  69.403  0.00  0.00    +0.025 C 
ENDBRANCH   1   9
TORSDOF 1
ENDMDL
MODEL 2
REMARK VINA RESULT:      -4.2      1.514      3.932
REMARK  Name = 
REMARK  1 active torsions:
REMARK  status: ('A' for Active; 'I' for Inactive)
REMARK    1  A    between atoms: C_4  and  C_5
REMARK                            x       y       z     vdW  Elec       q    Type
REMARK                         _______ _______ _______ _____ _____    ______ ____
ROOT
ATOM      1  C   UNL     1     -12.376  15.014  70.670  0.00  0.00    -0.021 A 
ATOM      2  C   UNL     1     -12.288  13.737  70.126  0.00  0.00    -0.004 A 
ATOM      3  C   UNL     1     -11.330  13.503  69.157  0.00  0.00    -0.000 A 
ATOM      4  C   UNL     1     -10.500  14.570  68.765  0.00  0.00    -0.000 A 
ATOM      5  C   UNL     1     -10.363  15.498  69.811  0.00  0.00    -0.000 A 
ATOM      6  C   UNL     1     -11.614  15.986  70.212  0.00  0.00    -0.004 A 
ENDROOT
BRANCH   1   9
ATOM      7  N   UNL     1     -11.862  15.510  72.962  0.00  0.00    -0.133 NA
ATOM      8  C   UNL     1     -13.442  15.514  73.014  0.00  0.00    +0.096 C 
ATOM      9  C   UNL     1     -13.820  15.214  71.347  0.00  0.00    +0.041 C 
ATOM     10  C   UNL     1     -13.673  13.902  72.462  0.00  0.00    +0.025 C 
ENDBRANCH   1   9
TORSDOF 1
ENDMDL
MODEL 3
REMARK VINA RESULT:      -4.2      1.451      2.181
REMARK  Name = 
REMARK  1 active torsions:
REMARK  status: ('A' for Active; 'I' for Inactive)
REMARK    1  A    between atoms: C_4  and  C_5
REMARK                            x       y       z     vdW  Elec       q    Type
REMARK                         _______ _______ _______ _____ _____    ______ ____
ROOT
ATOM      1  C   UNL     1     -11.786  14.618  70.710  0.00  0.00    -0.021 A 
ATOM      2  C   UNL     1     -12.722  13.632  71.001  0.00  0.00    -0.004 A 
ATOM      3  C   UNL     1     -13.378  13.690  72.217  0.00  0.00    -0.000 A 
ATOM      4  C   UNL     1     -13.059  14.739  73.100  0.00  0.00    -0.000 A 
ATOM      5  C   UNL     1     -12.603  15.862  72.388  0.00  0.00    -0.000 A 
ATOM      6  C   UNL     1     -11.485  15.536  71.607  0.00  0.00    -0.004 A 
ENDROOT
BRANCH   1   9
ATOM      7  N   UNL     1     -11.970  16.310  69.015  0.00  0.00    -0.133 NA
ATOM      8  C   UNL     1     -10.982  15.298  68.307  0.00  0.00    +0.096 C 
ATOM      9  C   UNL     1     -10.799  14.102  69.551  0.00  0.00    +0.041 C 
ATOM     10  C   UNL     1     -12.023  13.930  68.344  0.00  0.00    +0.025 C 
ENDBRANCH   1   9
TORSDOF 1
ENDMDL
MODEL 4
REMARK VINA RESULT:      -4.0      5.291      7.027
REMARK  Name = 
REMARK  1 active torsions:
REMARK  status: ('A' for Active; 'I' for Inactive)
REMARK    1  A    between atoms: C_4  and  C_5
REMARK                            x       y       z     vdW  Elec       q    Type
REMARK                         _______ _______ _______ _____ _____    ______ ____
ROOT
ATOM      1  C   UNL     1     -11.081  14.207  65.236  0.00  0.00    -0.021 A 
ATOM      2  C   UNL     1     -10.088  13.276  64.950  0.00  0.00    -0.004 A 
ATOM      3  C   UNL     1     -10.405  12.212  64.125  0.00  0.00    -0.000 A 
ATOM      4  C   UNL     1     -11.718  12.123  63.625  0.00  0.00    -0.000 A 
ATOM      5  C   UNL     1     -12.301  13.399  63.537  0.00  0.00    -0.000 A 
ATOM      6  C   UNL     1     -12.307  14.031  64.789  0.00  0.00    -0.004 A 
ENDROOT
BRANCH   1   9
ATOM      7  N   UNL     1     -10.952  16.485  64.487  0.00  0.00    -0.133 NA
ATOM      8  C   UNL     1     -10.543  16.657  66.005  0.00  0.00    +0.096 C 
ATOM      9  C   UNL     1     -10.690  15.021  66.566  0.00  0.00    +0.041 C 
ATOM     10  C   UNL     1      -9.179  15.611  65.972  0.00  0.00    +0.025 C 
ENDBRANCH   1   9
TORSDOF 1
ENDMDL
MODEL 5
REMARK VINA RESULT:      -4.0      4.837      6.324
REMARK  Name = 
REMARK  1 active torsions:
REMARK  status: ('A' for Active; 'I' for Inactive)
REMARK    1  A    between atoms: C_4  and  C_5
REMARK                            x       y       z     vdW  Elec       q    Type
REMARK                         _______ _______ _______ _____ _____    ______ ____
ROOT
ATOM      1  C   UNL     1     -11.001  12.282  65.875  0.00  0.00    -0.021 A 
ATOM      2  C   UNL     1     -10.493  11.003  66.074  0.00  0.00    -0.004 A 
ATOM      3  C   UNL     1     -10.403  10.529  67.370  0.00  0.00    -0.000 A 
ATOM      4  C   UNL     1     -10.821  11.368  68.420  0.00  0.00    -0.000 A 
ATOM      5  C   UNL     1     -11.800  12.271  67.970  0.00  0.00    -0.000 A 
ATOM      6  C   UNL     1     -11.314  13.042  66.904  0.00  0.00    -0.004 A 
ENDROOT
BRANCH   1   9
ATOM      7  N   UNL     1     -13.077  12.574  64.703  0.00  0.00    -0.133 NA
ATOM      8  C   UNL     1     -12.048  12.977  63.571  0.00  0.00    +0.096 C 
ATOM      9  C   UNL     1     -10.548  12.824  64.431  0.00  0.00    +0.041 C 
ATOM     10  C   UNL     1     -11.184  11.491  63.536  0.00  0.00    +0.025 C 
ENDBRANCH   1   9
TORSDOF 1
ENDMDL
MODEL 6
REMARK VINA RESULT:      -3.9      3.823      6.766
REMARK  Name = 
REMARK  1 active torsions:
REMARK  status: ('A' for Active; 'I' for Inactive)
REMARK    1  A    between atoms: C_4  and  C_5
REMARK                            x       y       z     vdW  Elec       q    Type
REMARK                         _______ _______ _______ _____ _____    ______ ____
ROOT
ATOM      1  C   UNL     1     -11.597  12.514  66.010  0.00  0.00    -0.021 A 
ATOM      2  C   UNL     1     -10.594  11.627  65.634  0.00  0.00    -0.004 A 
ATOM      3  C   UNL     1     -10.558  11.199  64.320  0.00  0.00    -0.000 A 
ATOM      4  C   UNL     1     -11.543  11.675  63.434  0.00  0.00    -0.000 A 
ATOM      5  C   UNL     1     -12.011  12.934  63.847  0.00  0.00    -0.000 A 
ATOM      6  C   UNL     1     -12.528  12.871  65.149  0.00  0.00    -0.004 A 
ENDROOT
BRANCH   1   9
ATOM      7  N   UNL     1     -11.298  14.803  66.673  0.00  0.00    -0.133 NA
ATOM      8  C   UNL     1     -11.508  14.119  68.084  0.00  0.00    +0.096 C 
ATOM      9  C   UNL     1     -11.782  12.473  67.606  0.00  0.00    +0.041 C 
ATOM     10  C   UNL     1     -10.188  13.022  67.981  0.00  0.00    +0.025 C 
ENDBRANCH   1   9
TORSDOF 1
ENDMDL
MODEL 7
REMARK VINA RESULT:      -3.9      4.187      5.828
REMARK  Name = 
REMARK  1 active torsions:
REMARK  status: ('A' for Active; 'I' for Inactive)
REMARK    1  A    between atoms: C_4  and  C_5
REMARK                            x       y       z     vdW  Elec       q    Type
REMARK                         _______ _______ _______ _____ _____    ______ ____
ROOT
ATOM      1  C   UNL     1     -10.846  14.448  65.669  0.00  0.00    -0.021 A 
ATOM      2  C   UNL     1     -11.335  14.272  66.960  0.00  0.00    -0.004 A 
ATOM      3  C   UNL     1     -11.061  15.246  67.902  0.00  0.00    -0.000 A 
ATOM      4  C   UNL     1     -10.295  16.360  67.510  0.00  0.00    -0.000 A 
ATOM      5  C   UNL     1     -10.449  16.605  66.134  0.00  0.00    -0.000 A 
ATOM      6  C   UNL     1     -10.080  15.481  65.383  0.00  0.00    -0.004 A 
ENDROOT
BRANCH   1   9
ATOM      7  N   UNL     1     -12.488  14.700  63.935  0.00  0.00    -0.133 NA
ATOM      8  C   UNL     1     -12.040  13.203  63.693  0.00  0.00    +0.096 C 
ATOM      9  C   UNL     1     -10.812  13.034  64.907  0.00  0.00    +0.041 C 
ATOM     10  C   UNL     1     -12.450  12.609  65.253  0.00  0.00    +0.025 C 
ENDBRANCH   1   9
TORSDOF 1
ENDMDL
MODEL 8
REMARK VINA RESULT:      -3.9      3.889      5.424
REMARK  Name = 
REMARK  1 active torsions:
REMARK  status: ('A' for Active; 'I' for Inactive)
REMARK    1  A    between atoms: C_4  and  C_5
REMARK                            x       y       z     vdW  Elec       q    Type
REMARK                         _______ _______ _______ _____ _____    ______ ____
ROOT
ATOM      1  C   UNL     1     -11.844  12.768  66.290  0.00  0.00    -0.021 A 
ATOM      2  C   UNL     1     -12.099  13.967  66.947  0.00  0.00    -0.004 A 
ATOM      3  C   UNL     1     -11.817  14.046  68.298  0.00  0.00    -0.000 A 
ATOM      4  C   UNL     1     -11.294  12.907  68.940  0.00  0.00    -0.000 A 
ATOM      5  C   UNL     1     -10.589  12.105  68.026  0.00  0.00    -0.000 A 
ATOM      6  C   UNL     1     -11.416  11.719  66.962  0.00  0.00    -0.004 A 
ENDROOT
BRANCH   1   9
ATOM      7  N   UNL     1     -10.163  12.640  64.580  0.00  0.00    -0.133 NA
ATOM      8  C   UNL     1     -11.472  12.674  63.694  0.00  0.00    +0.096 C 
ATOM      9  C   UNL     1     -12.694  12.709  64.927  0.00  0.00    +0.041 C 
ATOM     10  C   UNL     1     -12.072  14.179  64.269  0.00  0.00    +0.025 C 
ENDBRANCH   1   9
TORSDOF 1
ENDMDL
MODEL 9
REMARK VINA RESULT:      -3.8      5.780      6.233
REMARK  Name = 
REMARK  1 active torsions:
REMARK  status: ('A' for Active; 'I' for Inactive)
REMARK    1  A    between atoms: C_4  and  C_5
REMARK                            x       y       z     vdW  Elec       q    Type
REMARK                         _______ _______ _______ _____ _____    ______ ____
ROOT
ATOM      1  C   UNL     1     -11.073  12.336  65.837  0.00  0.00    -0.021 A 
ATOM      2  C   UNL     1     -10.073  13.302  65.788  0.00  0.00    -0.004 A 
ATOM      3  C   UNL     1     -10.382  14.537  65.247  0.00  0.00    -0.000 A 
ATOM      4  C   UNL     1     -11.688  14.749  64.768  0.00  0.00    -0.000 A 
ATOM      5  C   UNL     1     -12.604  13.927  65.449  0.00  0.00    -0.000 A 
ATOM      6  C   UNL     1     -12.257  12.576  65.312  0.00  0.00    -0.004 A 
ENDROOT
BRANCH   1   9
ATOM      7  N   UNL     1     -11.985  11.517  67.902  0.00  0.00    -0.133 NA
ATOM      8  C   UNL     1     -11.028  10.319  67.514  0.00  0.00    +0.096 C 
ATOM      9  C   UNL     1     -10.409  10.880  65.993  0.00  0.00    +0.041 C 
ATOM     10  C   UNL     1      -9.569  11.227  67.461  0.00  0.00    +0.025 C 
ENDBRANCH   1   9
TORSDOF 1
ENDMDL
