MODEL 1
REMARK VINA RESULT:      -7.4      0.000      0.000
REMARK  Name = 
REMARK  5 active torsions:
REMARK  status: ('A' for Active; 'I' for Inactive)
REMARK    1  A    between atoms: C_4  and  C_5
REMARK    2  A    between atoms: C_15  and  C_16
REMARK    3  A    between atoms: C_16  and  C_18
REMARK    4  A    between atoms: C_19  and  C_20
REMARK    5  A    between atoms: C_20  and  C_22
REMARK                            x       y       z     vdW  Elec       q    Type
REMARK                         _______ _______ _______ _____ _____    ______ ____
ROOT
ATOM      1  C   UNL     1      -7.113  19.144  69.265  0.00  0.00    -0.009 C 
ATOM      2  C   UNL     1      -7.870  18.940  68.196  0.00  0.00    -0.045 C 
ATOM      3  C   UNL     1      -9.155  17.972  68.484  0.00  0.00    +0.018 C 
ATOM      4  C   UNL     1      -8.263  16.592  68.262  0.00  0.00    +0.004 C 
ATOM      5  C   UNL     1      -9.379  15.723  68.003  0.00  0.00    +0.001 C 
ATOM      6  C   UNL     1     -10.411  16.511  67.012  0.00  0.00    +0.004 C 
ATOM      7  C   UNL     1      -9.527  17.876  66.872  0.00  0.00    +0.004 C 
ATOM      8  C   UNL     1      -8.319  17.664  66.136  0.00  0.00    +0.000 C 
ATOM      9  C   UNL     1     -10.410  19.014  66.646  0.00  0.00    +0.001 C 
ATOM     10  C   UNL     1      -9.793  20.245  67.296  0.00  0.00    +0.004 C 
ATOM     11  C   UNL     1      -8.274  20.120  67.364  0.00  0.00    +0.022 C 
ENDROOT
BRANCH   1  21
ATOM     12  C   UNL     1      -5.156  18.013  70.324  0.00  0.00    -0.002 C 
ATOM     13  C   UNL     1      -4.460  18.872  69.604  0.00  0.00    +0.004 C 
ATOM     14  C   UNL     1      -2.980  19.175  70.299  0.00  0.00    +0.176 C 
ATOM     15  O   UNL     1      -2.587  17.676  70.197  0.00  0.00    -0.218 OA
ATOM     16  C   UNL     1      -2.213  19.535  68.843  0.00  0.00    +0.071 C 
ATOM     17  C   UNL     1      -3.450  20.317  68.024  0.00  0.00    +0.159 C 
ATOM     18  O   UNL     1      -2.508  21.454  67.566  0.00  0.00    -0.223 OA
ATOM     19  C   UNL     1      -3.933  21.214  69.372  0.00  0.00    +0.059 C 
ATOM     20  C   UNL     1      -5.038  20.239  69.694  0.00  0.00    -0.021 C 
ATOM     21  C   UNL     1      -6.266  20.346  69.220  0.00  0.00    -0.005 C 
ENDBRANCH   1  21
BRANCH   6  22
ATOM     22  C   UNL     1      -9.721  15.717  65.634  0.00  0.00    +0.022 C 
ATOM     23  C   UNL     1     -11.044  16.078  64.728  0.00  0.00    +0.005 C 
BRANCH  22  24
ATOM     24  C   UNL     1     -10.284  14.306  66.149  0.00  0.00    -0.029 C 
ATOM     25  C   UNL     1     -10.349  13.313  65.372  0.00  0.00    +0.002 C 
BRANCH  25  26
ATOM     26  C   UNL     1     -10.652  11.828  66.026  0.00  0.00    +0.174 C 
ATOM     27  O   UNL     1     -12.175  12.081  66.247  0.00  0.00    -0.218 OA
BRANCH  26  28
ATOM     28  C   UNL     1     -10.862  11.162  64.488  0.00  0.00    +0.035 C 
ATOM     29  C   UNL     1     -11.791  11.966  63.675  0.00  0.00    +0.003 C 
ATOM     30  C   UNL     1     -10.259  11.908  63.413  0.00  0.00    +0.003 C 
ENDBRANCH  26  28
ENDBRANCH  25  26
ENDBRANCH  22  24
ENDBRANCH   6  22
TORSDOF 5
ENDMDL
MODEL 2
REMARK VINA RESULT:      -7.4      3.489      5.609
REMARK  Name = 
REMARK  5 active torsions:
REMARK  status: ('A' for Active; 'I' for Inactive)
REMARK    1  A    between atoms: C_4  and  C_5
REMARK    2  A    between atoms: C_15  and  C_16
REMARK    3  A    between atoms: C_16  and  C_18
REMARK    4  A    between atoms: C_19  and  C_20
REMARK    5  A    between atoms: C_20  and  C_22
REMARK                            x       y       z     vdW  Elec       q    Type
REMARK                         _______ _______ _______ _____ _____    ______ ____
ROOT
ATOM      1  C   UNL     1     -10.562  16.792  67.097  0.00  0.00    -0.009 C 
ATOM      2  C   UNL     1     -10.571  15.512  66.751  0.00  0.00    -0.045 C 
ATOM      3  C   UNL     1     -11.713  14.637  67.526  0.00  0.00    +0.018 C 
ATOM      4  C   UNL     1     -10.743  14.396  68.848  0.00  0.00    +0.004 C 
ATOM      5  C   UNL     1     -11.447  13.250  69.355  0.00  0.00    +0.001 C 
ATOM      6  C   UNL     1     -11.807  12.280  68.090  0.00  0.00    +0.004 C 
ATOM      7  C   UNL     1     -11.110  13.209  66.942  0.00  0.00    +0.004 C 
ATOM      8  C   UNL     1      -9.683  13.233  67.060  0.00  0.00    +0.000 C 
ATOM      9  C   UNL     1     -11.803  13.026  65.672  0.00  0.00    +0.001 C 
ATOM     10  C   UNL     1     -11.758  14.338  64.901  0.00  0.00    +0.004 C 
ATOM     11  C   UNL     1     -10.533  15.158  65.295  0.00  0.00    +0.022 C 
ENDROOT
BRANCH   1  21
ATOM     12  C   UNL     1      -9.368  18.109  68.848  0.00  0.00    -0.002 C 
ATOM     13  C   UNL     1      -8.479  18.294  67.891  0.00  0.00    +0.004 C 
ATOM     14  C   UNL     1      -7.628  19.702  68.130  0.00  0.00    +0.176 C 
ATOM     15  O   UNL     1      -7.103  19.194  69.500  0.00  0.00    -0.218 OA
ATOM     16  C   UNL     1      -6.243  19.165  67.334  0.00  0.00    +0.071 C 
ATOM     17  C   UNL     1      -6.925  18.249  66.106  0.00  0.00    +0.159 C 
ATOM     18  O   UNL     1      -5.993  18.875  65.042  0.00  0.00    -0.223 OA
ATOM     19  C   UNL     1      -8.129  19.386  65.769  0.00  0.00    +0.059 C 
ATOM     20  C   UNL     1      -9.141  18.644  66.606  0.00  0.00    -0.021 C 
ATOM     21  C   UNL     1      -9.936  17.704  66.126  0.00  0.00    -0.005 C 
ENDBRANCH   1  21
BRANCH   6  22
ATOM     22  C   UNL     1     -10.402  11.316  68.408  0.00  0.00    +0.022 C 
ATOM     23  C   UNL     1     -10.938  10.147  67.384  0.00  0.00    +0.005 C 
BRANCH  22  24
ATOM     24  C   UNL     1     -11.105  10.697  69.710  0.00  0.00    -0.029 C 
ATOM     25  C   UNL     1     -10.713   9.601  70.197  0.00  0.00    +0.002 C 
BRANCH  25  26
ATOM     26  C   UNL     1     -11.268   9.167  71.691  0.00  0.00    +0.174 C 
ATOM     27  O   UNL     1     -12.466  10.167  71.689  0.00  0.00    -0.218 OA
BRANCH  26  28
ATOM     28  C   UNL     1     -12.166   7.903  71.020  0.00  0.00    +0.035 C 
ATOM     29  C   UNL     1     -11.310   6.983  70.250  0.00  0.00    +0.003 C 
ATOM     30  C   UNL     1     -11.945   6.612  71.620  0.00  0.00    +0.003 C 
ENDBRANCH  26  28
ENDBRANCH  25  26
ENDBRANCH  22  24
ENDBRANCH   6  22
TORSDOF 5
ENDMDL
MODEL 3
REMARK VINA RESULT:      -7.2      2.391      8.943
REMARK  Name = 
REMARK  5 active torsions:
REMARK  status: ('A' for Active; 'I' for Inactive)
REMARK    1  A    between atoms: C_4  and  C_5
REMARK    2  A    between atoms: C_15  and  C_16
REMARK    3  A    between atoms: C_16  and  C_18
REMARK    4  A    between atoms: C_19  and  C_20
REMARK    5  A    between atoms: C_20  and  C_22
REMARK                            x       y       z     vdW  Elec       q    Type
REMARK                         _______ _______ _______ _____ _____    ______ ____
ROOT
ATOM      1  C   UNL     1      -9.257  16.049  66.613  0.00  0.00    -0.009 C 
ATOM      2  C   UNL     1      -8.791  17.149  67.188  0.00  0.00    -0.045 C 
ATOM      3  C   UNL     1      -8.330  18.296  66.119  0.00  0.00    +0.018 C 
ATOM      4  C   UNL     1      -6.829  17.620  65.922  0.00  0.00    +0.004 C 
ATOM      5  C   UNL     1      -6.190  18.800  65.406  0.00  0.00    +0.001 C 
ATOM      6  C   UNL     1      -6.690  20.074  66.298  0.00  0.00    +0.004 C 
ATOM      7  C   UNL     1      -7.649  19.226  67.310  0.00  0.00    +0.004 C 
ATOM      8  C   UNL     1      -6.897  18.374  68.180  0.00  0.00    +0.000 C 
ATOM      9  C   UNL     1      -8.747  20.068  67.771  0.00  0.00    +0.001 C 
ATOM     10  C   UNL     1      -9.975  19.193  67.983  0.00  0.00    +0.004 C 
ATOM     11  C   UNL     1      -9.570  17.759  68.314  0.00  0.00    +0.022 C 
ENDROOT
BRANCH   1  21
ATOM     12  C   UNL     1     -10.999  15.764  64.848  0.00  0.00    -0.002 C 
ATOM     13  C   UNL     1     -11.203  14.607  65.448  0.00  0.00    +0.004 C 
ATOM     14  C   UNL     1     -12.759  14.074  65.205  0.00  0.00    +0.176 C 
ATOM     15  O   UNL     1     -12.550  14.052  63.667  0.00  0.00    -0.218 OA
ATOM     16  C   UNL     1     -12.370  12.440  65.339  0.00  0.00    +0.071 C 
ATOM     17  C   UNL     1     -11.185  12.499  66.524  0.00  0.00    +0.159 C 
ATOM     18  O   UNL     1     -11.811  11.311  67.292  0.00  0.00    -0.223 OA
ATOM     19  C   UNL     1     -12.030  13.606  67.480  0.00  0.00    +0.059 C 
ATOM     20  C   UNL     1     -11.245  14.768  66.925  0.00  0.00    -0.021 C 
ATOM     21  C   UNL     1     -10.121  15.211  67.459  0.00  0.00    -0.005 C 
ENDBRANCH   1  21
BRANCH   6  22
ATOM     22  C   UNL     1      -5.266  19.968  67.279  0.00  0.00    +0.022 C 
ATOM     23  C   UNL     1      -5.552  21.459  67.907  0.00  0.00    +0.005 C 
BRANCH  22  24
ATOM     24  C   UNL     1      -4.369  20.497  66.059  0.00  0.00    -0.029 C 
ATOM     25  C   UNL     1      -3.149  20.772  66.226  0.00  0.00    +0.002 C 
BRANCH  25  26
ATOM     26  C   UNL     1      -2.215  21.024  64.887  0.00  0.00    +0.174 C 
ATOM     27  O   UNL     1      -2.420  19.591  64.303  0.00  0.00    -0.218 OA
BRANCH  26  28
ATOM     28  C   UNL     1      -3.532  21.680  64.057  0.00  0.00    +0.035 C 
ATOM     29  C   UNL     1      -3.131  22.838  63.238  0.00  0.00    +0.003 C 
ATOM     30  C   UNL     1      -3.527  21.461  62.634  0.00  0.00    +0.003 C 
ENDBRANCH  26  28
ENDBRANCH  25  26
ENDBRANCH  22  24
ENDBRANCH   6  22
TORSDOF 5
ENDMDL
MODEL 4
REMARK VINA RESULT:      -7.2      3.378      5.963
REMARK  Name = 
REMARK  5 active torsions:
REMARK  status: ('A' for Active; 'I' for Inactive)
REMARK    1  A    between atoms: C_4  and  C_5
REMARK    2  A    between atoms: C_15  and  C_16
REMARK    3  A    between atoms: C_16  and  C_18
REMARK    4  A    between atoms: C_19  and  C_20
REMARK    5  A    between atoms: C_20  and  C_22
REMARK                            x       y       z     vdW  Elec       q    Type
REMARK                         _______ _______ _______ _____ _____    ______ ____
ROOT
ATOM      1  C   UNL     1     -10.837  15.792  67.373  0.00  0.00    -0.009 C 
ATOM      2  C   UNL     1     -10.672  14.633  66.750  0.00  0.00    -0.045 C 
ATOM      3  C   UNL     1     -11.613  13.436  67.344  0.00  0.00    +0.018 C 
ATOM      4  C   UNL     1     -10.532  13.078  68.549  0.00  0.00    +0.004 C 
ATOM      5  C   UNL     1     -11.018  11.750  68.807  0.00  0.00    +0.001 C 
ATOM      6  C   UNL     1     -11.306  11.031  67.368  0.00  0.00    +0.004 C 
ATOM      7  C   UNL     1     -10.837  12.287  66.437  0.00  0.00    +0.004 C 
ATOM      8  C   UNL     1      -9.427  12.519  66.515  0.00  0.00    +0.000 C 
ATOM      9  C   UNL     1     -11.575  12.271  65.180  0.00  0.00    +0.001 C 
ATOM     10  C   UNL     1     -11.783  13.708  64.721  0.00  0.00    +0.004 C 
ATOM     11  C   UNL     1     -10.675  14.614  65.251  0.00  0.00    +0.022 C 
ENDROOT
BRANCH   1  21
ATOM     12  C   UNL     1      -9.202  16.539  69.104  0.00  0.00    -0.002 C 
ATOM     13  C   UNL     1      -8.562  17.044  68.067  0.00  0.00    +0.004 C 
ATOM     14  C   UNL     1      -7.619  18.337  68.518  0.00  0.00    +0.176 C 
ATOM     15  O   UNL     1      -6.802  17.446  69.494  0.00  0.00    -0.218 OA
ATOM     16  C   UNL     1      -6.489  18.122  67.286  0.00  0.00    +0.071 C 
ATOM     17  C   UNL     1      -7.485  17.612  66.037  0.00  0.00    +0.159 C 
ATOM     18  O   UNL     1      -6.810  18.570  65.028  0.00  0.00    -0.223 OA
ATOM     19  C   UNL     1      -8.685  18.753  66.370  0.00  0.00    +0.059 C 
ATOM     20  C   UNL     1      -9.497  17.753  67.154  0.00  0.00    -0.021 C 
ATOM     21  C   UNL     1     -10.423  16.982  66.613  0.00  0.00    -0.005 C 
ENDBRANCH   1  21
BRANCH   6  22
ATOM     22  C   UNL     1      -9.753  10.264  67.421  0.00  0.00    +0.022 C 
ATOM     23  C   UNL     1     -10.232   9.153  66.309  0.00  0.00    +0.005 C 
BRANCH  22  24
ATOM     24  C   UNL     1     -10.207   9.399  68.692  0.00  0.00    -0.029 C 
ATOM     25  C   UNL     1      -9.404   8.603  69.253  0.00  0.00    +0.002 C 
BRANCH  25  26
ATOM     26  C   UNL     1      -9.828   7.969  70.718  0.00  0.00    +0.174 C 
ATOM     27  O   UNL     1      -9.314   9.186  71.549  0.00  0.00    -0.218 OA
BRANCH  26  28
ATOM     28  C   UNL     1     -11.394   8.583  70.562  0.00  0.00    +0.035 C 
ATOM     29  C   UNL     1     -12.370   7.764  71.304  0.00  0.00    +0.003 C 
ATOM     30  C   UNL     1     -11.933   9.188  71.753  0.00  0.00    +0.003 C 
ENDBRANCH  26  28
ENDBRANCH  25  26
ENDBRANCH  22  24
ENDBRANCH   6  22
TORSDOF 5
ENDMDL
MODEL 5
REMARK VINA RESULT:      -7.1      4.906      8.261
REMARK  Name = 
REMARK  5 active torsions:
REMARK  status: ('A' for Active; 'I' for Inactive)
REMARK    1  A    between atoms: C_4  and  C_5
REMARK    2  A    between atoms: C_15  and  C_16
REMARK    3  A    between atoms: C_16  and  C_18
REMARK    4  A    between atoms: C_19  and  C_20
REMARK    5  A    between atoms: C_20  and  C_22
REMARK                            x       y       z     vdW  Elec       q    Type
REMARK                         _______ _______ _______ _____ _____    ______ ____
ROOT
ATOM      1  C   UNL     1     -11.448  13.415  66.862  0.00  0.00    -0.009 C 
ATOM      2  C   UNL     1     -10.691  12.337  67.009  0.00  0.00    -0.045 C 
ATOM      3  C   UNL     1     -11.501  11.051  67.611  0.00  0.00    +0.018 C 
ATOM      4  C   UNL     1     -11.295  11.555  69.177  0.00  0.00    +0.004 C 
ATOM      5  C   UNL     1     -11.523  10.274  69.787  0.00  0.00    +0.001 C 
ATOM      6  C   UNL     1     -10.734   9.148  68.904  0.00  0.00    +0.004 C 
ATOM      7  C   UNL     1     -10.104  10.181  67.808  0.00  0.00    +0.004 C 
ATOM      8  C   UNL     1      -9.110  11.036  68.382  0.00  0.00    +0.000 C 
ATOM      9  C   UNL     1      -9.930   9.499  66.531  0.00  0.00    +0.001 C 
ATOM     10  C   UNL     1     -10.144  10.506  65.410  0.00  0.00    +0.004 C 
ATOM     11  C   UNL     1      -9.804  11.919  65.875  0.00  0.00    +0.022 C 
ENDROOT
BRANCH   1  21
ATOM     12  C   UNL     1     -11.713  15.323  68.449  0.00  0.00    -0.002 C 
ATOM     13  C   UNL     1     -10.694  15.826  67.779  0.00  0.00    +0.004 C 
ATOM     14  C   UNL     1     -10.689  17.487  67.856  0.00  0.00    +0.176 C 
ATOM     15  O   UNL     1     -10.575  17.450  69.405  0.00  0.00    -0.218 OA
ATOM     16  C   UNL     1      -9.019  17.631  67.679  0.00  0.00    +0.071 C 
ATOM     17  C   UNL     1      -8.711  16.377  66.609  0.00  0.00    +0.159 C 
ATOM     18  O   UNL     1      -7.802  17.271  65.732  0.00  0.00    -0.223 OA
ATOM     19  C   UNL     1     -10.048  16.723  65.636  0.00  0.00    +0.059 C 
ATOM     20  C   UNL     1     -10.884  15.667  66.313  0.00  0.00    -0.021 C 
ATOM     21  C   UNL     1     -10.948  14.413  65.903  0.00  0.00    -0.005 C 
ENDBRANCH   1  21
BRANCH   6  22
ATOM     22  C   UNL     1      -9.389   9.211  69.995  0.00  0.00    +0.022 C 
ATOM     23  C   UNL     1      -8.809   7.790  69.407  0.00  0.00    +0.005 C 
BRANCH  22  24
ATOM     24  C   UNL     1     -10.275   8.536  71.149  0.00  0.00    -0.029 C 
ATOM     25  C   UNL     1      -9.759   7.731  71.972  0.00  0.00    +0.002 C 
BRANCH  25  26
ATOM     26  C   UNL     1     -10.639   7.304  73.302  0.00  0.00    +0.174 C 
ATOM     27  O   UNL     1     -11.883   8.169  72.930  0.00  0.00    -0.218 OA
BRANCH  26  28
ATOM     28  C   UNL     1     -11.212   5.923  72.515  0.00  0.00    +0.035 C 
ATOM     29  C   UNL     1     -10.124   4.968  72.241  0.00  0.00    +0.003 C 
ATOM     30  C   UNL     1     -11.223   4.726  73.315  0.00  0.00    +0.003 C 
ENDBRANCH  26  28
ENDBRANCH  25  26
ENDBRANCH  22  24
ENDBRANCH   6  22
TORSDOF 5
ENDMDL
MODEL 6
REMARK VINA RESULT:      -7.0      4.115      9.595
REMARK  Name = 
REMARK  5 active torsions:
REMARK  status: ('A' for Active; 'I' for Inactive)
REMARK    1  A    between atoms: C_4  and  C_5
REMARK    2  A    between atoms: C_15  and  C_16
REMARK    3  A    between atoms: C_16  and  C_18
REMARK    4  A    between atoms: C_19  and  C_20
REMARK    5  A    between atoms: C_20  and  C_22
REMARK                            x       y       z     vdW  Elec       q    Type
REMARK                         _______ _______ _______ _____ _____    ______ ____
ROOT
ATOM      1  C   UNL     1      -9.635  10.144  68.512  0.00  0.00    -0.009 C 
ATOM      2  C   UNL     1     -10.119  11.045  67.669  0.00  0.00    -0.045 C 
ATOM      3  C   UNL     1      -8.974  12.023  67.034  0.00  0.00    +0.018 C 
ATOM      4  C   UNL     1      -9.015  13.047  68.338  0.00  0.00    +0.004 C 
ATOM      5  C   UNL     1      -8.429  14.177  67.670  0.00  0.00    +0.001 C 
ATOM      6  C   UNL     1      -9.105  14.292  66.187  0.00  0.00    +0.004 C 
ATOM      7  C   UNL     1     -10.109  13.013  66.343  0.00  0.00    +0.004 C 
ATOM      8  C   UNL     1     -11.147  13.255  67.298  0.00  0.00    +0.000 C 
ATOM      9  C   UNL     1     -10.350  12.414  65.036  0.00  0.00    +0.001 C 
ATOM     10  C   UNL     1     -10.538  10.914  65.216  0.00  0.00    +0.004 C 
ATOM     11  C   UNL     1     -11.079  10.597  66.608  0.00  0.00    +0.022 C 
ENDROOT
BRANCH   1  21
ATOM     12  C   UNL     1      -8.416   9.436  70.571  0.00  0.00    -0.002 C 
ATOM     13  C   UNL     1      -9.590   8.941  70.916  0.00  0.00    +0.004 C 
ATOM     14  C   UNL     1      -9.416   7.670  71.973  0.00  0.00    +0.176 C 
ATOM     15  O   UNL     1      -8.696   8.580  73.005  0.00  0.00    -0.218 OA
ATOM     16  C   UNL     1     -10.908   7.905  72.720  0.00  0.00    +0.071 C 
ATOM     17  C   UNL     1     -11.838   8.391  71.412  0.00  0.00    +0.159 C 
ATOM     18  O   UNL     1     -12.996   7.445  71.807  0.00  0.00    -0.223 OA
ATOM     19  C   UNL     1     -11.195   7.226  70.372  0.00  0.00    +0.059 C 
ATOM     20  C   UNL     1     -10.217   8.211  69.782  0.00  0.00    -0.021 C 
ATOM     21  C   UNL     1     -10.483   8.961  68.728  0.00  0.00    -0.005 C 
ENDBRANCH   1  21
BRANCH   6  22
ATOM     22  C   UNL     1     -10.234  15.469  66.775  0.00  0.00    +0.022 C 
ATOM     23  C   UNL     1     -10.619  15.908  65.239  0.00  0.00    +0.005 C 
BRANCH  22  24
ATOM     24  C   UNL     1      -9.052  16.541  66.936  0.00  0.00    -0.029 C 
ATOM     25  C   UNL     1      -9.212  17.739  66.573  0.00  0.00    +0.002 C 
BRANCH  25  26
ATOM     26  C   UNL     1      -8.081  18.852  67.032  0.00  0.00    +0.174 C 
ATOM     27  O   UNL     1      -7.602  19.168  65.581  0.00  0.00    -0.218 OA
BRANCH  26  28
ATOM     28  C   UNL     1      -9.248  20.074  67.042  0.00  0.00    +0.035 C 
ATOM     29  C   UNL     1     -10.324  19.801  66.074  0.00  0.00    +0.003 C 
ATOM     30  C   UNL     1     -10.516  19.702  67.614  0.00  0.00    +0.003 C 
ENDBRANCH  26  28
ENDBRANCH  25  26
ENDBRANCH  22  24
ENDBRANCH   6  22
TORSDOF 5
ENDMDL
MODEL 7
REMARK VINA RESULT:      -6.7      3.724      9.239
REMARK  Name = 
REMARK  5 active torsions:
REMARK  status: ('A' for Active; 'I' for Inactive)
REMARK    1  A    between atoms: C_4  and  C_5
REMARK    2  A    between atoms: C_15  and  C_16
REMARK    3  A    between atoms: C_16  and  C_18
REMARK    4  A    between atoms: C_19  and  C_20
REMARK    5  A    between atoms: C_20  and  C_22
REMARK                            x       y       z     vdW  Elec       q    Type
REMARK                         _______ _______ _______ _____ _____    ______ ____
ROOT
ATOM      1  C   UNL     1     -10.260  10.955  65.202  0.00  0.00    -0.009 C 
ATOM      2  C   UNL     1     -10.289  11.486  66.416  0.00  0.00    -0.045 C 
ATOM      3  C   UNL     1     -11.440  12.632  66.597  0.00  0.00    +0.018 C 
ATOM      4  C   UNL     1     -10.466  13.819  65.972  0.00  0.00    +0.004 C 
ATOM      5  C   UNL     1     -11.185  14.928  66.539  0.00  0.00    +0.001 C 
ATOM      6  C   UNL     1     -11.564  14.545  68.082  0.00  0.00    +0.004 C 
ATOM      7  C   UNL     1     -10.859  13.073  68.085  0.00  0.00    +0.004 C 
ATOM      8  C   UNL     1      -9.432  13.157  68.013  0.00  0.00    +0.000 C 
ATOM      9  C   UNL     1     -11.561  12.193  69.013  0.00  0.00    +0.001 C 
ATOM     10  C   UNL     1     -11.501  10.771  68.473  0.00  0.00    +0.004 C 
ATOM     11  C   UNL     1     -10.263  10.571  67.603  0.00  0.00    +0.022 C 
ENDROOT
BRANCH   1  21
ATOM     12  C   UNL     1      -9.513  11.295  62.845  0.00  0.00    -0.002 C 
ATOM     13  C   UNL     1      -8.528  10.491  63.199  0.00  0.00    +0.004 C 
ATOM     14  C   UNL     1      -7.911   9.685  61.883  0.00  0.00    +0.176 C 
ATOM     15  O   UNL     1      -7.526  11.025  61.198  0.00  0.00    -0.218 OA
ATOM     16  C   UNL     1      -6.368   9.509  62.537  0.00  0.00    +0.071 C 
ATOM     17  C   UNL     1      -6.741   9.267  64.154  0.00  0.00    +0.159 C 
ATOM     18  O   UNL     1      -5.756   8.079  64.264  0.00  0.00    -0.223 OA
ATOM     19  C   UNL     1      -8.022   8.217  63.821  0.00  0.00    +0.059 C 
ATOM     20  C   UNL     1      -9.038   9.323  63.964  0.00  0.00    -0.021 C 
ATOM     21  C   UNL     1      -9.626   9.630  65.106  0.00  0.00    -0.005 C 
ENDBRANCH   1  21
BRANCH   6  22
ATOM     22  C   UNL     1     -10.172  15.405  68.654  0.00  0.00    +0.022 C 
ATOM     23  C   UNL     1     -10.817  15.501  70.163  0.00  0.00    +0.005 C 
BRANCH  22  24
ATOM     24  C   UNL     1     -10.799  16.789  68.143  0.00  0.00    -0.029 C 
ATOM     25  C   UNL     1     -10.090  17.831  68.068  0.00  0.00    +0.002 C 
BRANCH  25  26
ATOM     26  C   UNL     1     -10.704  19.136  67.263  0.00  0.00    +0.174 C 
ATOM     27  O   UNL     1     -10.247  20.182  68.328  0.00  0.00    -0.218 OA
BRANCH  26  28
ATOM     28  C   UNL     1      -9.290  19.272  66.348  0.00  0.00    +0.035 C 
ATOM     29  C   UNL     1      -8.237  19.992  67.085  0.00  0.00    +0.003 C 
ATOM     30  C   UNL     1      -8.189  18.463  66.804  0.00  0.00    +0.003 C 
ENDBRANCH  26  28
ENDBRANCH  25  26
ENDBRANCH  22  24
ENDBRANCH   6  22
TORSDOF 5
ENDMDL
MODEL 8
REMARK VINA RESULT:      -6.7      4.116      7.596
REMARK  Name = 
REMARK  5 active torsions:
REMARK  status: ('A' for Active; 'I' for Inactive)
REMARK    1  A    between atoms: C_4  and  C_5
REMARK    2  A    between atoms: C_15  and  C_16
REMARK    3  A    between atoms: C_16  and  C_18
REMARK    4  A    between atoms: C_19  and  C_20
REMARK    5  A    between atoms: C_20  and  C_22
REMARK                            x       y       z     vdW  Elec       q    Type
REMARK                         _______ _______ _______ _____ _____    ______ ____
ROOT
ATOM      1  C   UNL     1     -11.359  13.952  66.410  0.00  0.00    -0.009 C 
ATOM      2  C   UNL     1     -10.655  12.838  66.269  0.00  0.00    -0.045 C 
ATOM      3  C   UNL     1     -11.466  11.494  66.723  0.00  0.00    +0.018 C 
ATOM      4  C   UNL     1     -11.056  11.692  68.318  0.00  0.00    +0.004 C 
ATOM      5  C   UNL     1     -11.290  10.329  68.711  0.00  0.00    +0.001 C 
ATOM      6  C   UNL     1     -10.673   9.357  67.552  0.00  0.00    +0.004 C 
ATOM      7  C   UNL     1     -10.109  10.551  66.591  0.00  0.00    +0.004 C 
ATOM      8  C   UNL     1      -9.009  11.248  67.185  0.00  0.00    +0.000 C 
ATOM      9  C   UNL     1     -10.119  10.111  65.201  0.00  0.00    +0.001 C 
ATOM     10  C   UNL     1     -10.398  11.316  64.313  0.00  0.00    +0.004 C 
ATOM     11  C   UNL     1      -9.926  12.605  64.980  0.00  0.00    +0.022 C 
ENDROOT
BRANCH   1  21
ATOM     12  C   UNL     1     -11.455  15.571  68.307  0.00  0.00    -0.002 C 
ATOM     13  C   UNL     1     -10.479  16.169  67.650  0.00  0.00    +0.004 C 
ATOM     14  C   UNL     1     -10.430  17.794  67.999  0.00  0.00    +0.176 C 
ATOM     15  O   UNL     1     -10.198  17.498  69.506  0.00  0.00    -0.218 OA
ATOM     16  C   UNL     1      -8.776  17.948  67.716  0.00  0.00    +0.071 C 
ATOM     17  C   UNL     1      -8.581  16.887  66.431  0.00  0.00    +0.159 C 
ATOM     18  O   UNL     1      -7.723  17.905  65.645  0.00  0.00    -0.223 OA
ATOM     19  C   UNL     1      -9.981  17.404  65.639  0.00  0.00    +0.059 C 
ATOM     20  C   UNL     1     -10.787  16.258  66.197  0.00  0.00    -0.021 C 
ATOM     21  C   UNL     1     -10.912  15.091  65.592  0.00  0.00    -0.005 C 
ENDBRANCH   1  21
BRANCH   6  22
ATOM     22  C   UNL     1      -9.212   9.167  68.466  0.00  0.00    +0.022 C 
ATOM     23  C   UNL     1      -8.747   7.909  67.515  0.00  0.00    +0.005 C 
BRANCH  22  24
ATOM     24  C   UNL     1      -9.984   8.258  69.537  0.00  0.00    -0.029 C 
ATOM     25  C   UNL     1      -9.374   7.762  70.524  0.00  0.00    +0.002 C 
BRANCH  25  26
ATOM     26  C   UNL     1     -10.268   7.091  71.739  0.00  0.00    +0.174 C 
ATOM     27  O   UNL     1      -9.941   8.203  72.783  0.00  0.00    -0.218 OA
BRANCH  26  28
ATOM     28  C   UNL     1     -11.663   7.860  71.176  0.00  0.00    +0.035 C 
ATOM     29  C   UNL     1     -12.876   7.105  71.532  0.00  0.00    +0.003 C 
ATOM     30  C   UNL     1     -12.486   8.454  72.198  0.00  0.00    +0.003 C 
ENDBRANCH  26  28
ENDBRANCH  25  26
ENDBRANCH  22  24
ENDBRANCH   6  22
TORSDOF 5
ENDMDL
MODEL 9
REMARK VINA RESULT:      -6.6      3.713      9.208
REMARK  Name = 
REMARK  5 active torsions:
REMARK  status: ('A' for Active; 'I' for Inactive)
REMARK    1  A    between atoms: C_4  and  C_5
REMARK    2  A    between atoms: C_15  and  C_16
REMARK    3  A    between atoms: C_16  and  C_18
REMARK    4  A    between atoms: C_19  and  C_20
REMARK    5  A    between atoms: C_20  and  C_22
REMARK                            x       y       z     vdW  Elec       q    Type
REMARK                         _______ _______ _______ _____ _____    ______ ____
ROOT
ATOM      1  C   UNL     1      -9.660  11.102  68.132  0.00  0.00    -0.009 C 
ATOM      2  C   UNL     1     -10.241  12.285  67.995  0.00  0.00    -0.045 C 
ATOM      3  C   UNL     1      -9.391  13.322  67.061  0.00  0.00    +0.018 C 
ATOM      4  C   UNL     1      -8.437  13.804  68.329  0.00  0.00    +0.004 C 
ATOM      5  C   UNL     1      -8.008  15.044  67.741  0.00  0.00    +0.001 C 
ATOM      6  C   UNL     1      -9.306  15.746  67.040  0.00  0.00    +0.004 C 
ATOM      7  C   UNL     1     -10.384  14.590  67.451  0.00  0.00    +0.004 C 
ATOM      8  C   UNL     1     -10.633  14.560  68.860  0.00  0.00    +0.000 C 
ATOM      9  C   UNL     1     -11.444  14.528  66.451  0.00  0.00    +0.001 C 
ATOM     10  C   UNL     1     -11.922  13.087  66.339  0.00  0.00    +0.004 C 
ATOM     11  C   UNL     1     -11.699  12.337  67.649  0.00  0.00    +0.022 C 
ENDROOT
BRANCH   1  21
ATOM     12  C   UNL     1      -7.955   9.999  69.583  0.00  0.00    -0.002 C 
ATOM     13  C   UNL     1      -9.011   9.594  70.261  0.00  0.00    +0.004 C 
ATOM     14  C   UNL     1      -8.692   8.183  71.080  0.00  0.00    +0.176 C 
ATOM     15  O   UNL     1      -7.550   8.865  71.881  0.00  0.00    -0.218 OA
ATOM     16  C   UNL     1      -9.808   8.477  72.307  0.00  0.00    +0.071 C 
ATOM     17  C   UNL     1     -11.031   9.230  71.441  0.00  0.00    +0.159 C 
ATOM     18  O   UNL     1     -12.122   8.371  72.122  0.00  0.00    -0.223 OA
ATOM     19  C   UNL     1     -10.939   8.149  70.146  0.00  0.00    +0.059 C 
ATOM     20  C   UNL     1     -10.073   9.092  69.348  0.00  0.00    -0.021 C 
ATOM     21  C   UNL     1     -10.555   9.999  68.518  0.00  0.00    -0.005 C 
ENDBRANCH   1  21
BRANCH   6  22
ATOM     22  C   UNL     1      -9.558  16.725  68.449  0.00  0.00    +0.022 C 
ATOM     23  C   UNL     1     -10.505  17.761  67.594  0.00  0.00    +0.005 C 
BRANCH  22  24
ATOM     24  C   UNL     1      -8.191  17.512  68.163  0.00  0.00    -0.029 C 
ATOM     25  C   UNL     1      -8.002  18.670  68.628  0.00  0.00    +0.002 C 
BRANCH  25  26
ATOM     26  C   UNL     1      -6.479  19.304  68.553  0.00  0.00    +0.174 C 
ATOM     27  O   UNL     1      -6.546  19.993  69.951  0.00  0.00    -0.218 OA
BRANCH  26  28
ATOM     28  C   UNL     1      -5.822  17.869  69.157  0.00  0.00    +0.035 C 
ATOM     29  C   UNL     1      -4.356  17.956  69.275  0.00  0.00    +0.003 C 
ATOM     30  C   UNL     1      -5.311  17.952  70.501  0.00  0.00    +0.003 C 
ENDBRANCH  26  28
ENDBRANCH  25  26
ENDBRANCH  22  24
ENDBRANCH   6  22
TORSDOF 5
ENDMDL
