MODEL 1
REMARK VINA RESULT:      -6.0      0.000      0.000
REMARK  Name = 
REMARK  21 active torsions:
REMARK  status: ('A' for Active; 'I' for Inactive)
REMARK    1  A    between atoms: C_2  and  C_3
REMARK    2  A    between atoms: C_3  and  C_4
REMARK    3  A    between atoms: C_4  and  C_5
REMARK    4  A    between atoms: C_5  and  C_6
REMARK    5  A    between atoms: C_6  and  C_7
REMARK    6  A    between atoms: C_7  and  C_8
REMARK    7  A    between atoms: C_8  and  C_9
REMARK    8  A    between atoms: C_9  and  C_10
REMARK    9  A    between atoms: C_10  and  C_11
REMARK   10  A    between atoms: C_11  and  C_12
REMARK   11  A    between atoms: C_12  and  C_13
REMARK   12  A    between atoms: C_13  and  C_14
REMARK   13  A    between atoms: C_14  and  C_15
REMARK   14  A    between atoms: C_15  and  C_16
REMARK   15  A    between atoms: C_16  and  N_17
REMARK   16  A    between atoms: N_17  and  C_20
REMARK   17  A    between atoms: C_20  and  C_21
REMARK   18  A    between atoms: C_21  and  N_22
REMARK   19  A    between atoms: N_22  and  C_23
REMARK   20  A    between atoms: C_23  and  C_24
REMARK   21  A    between atoms: C_27  and  O_28
REMARK                            x       y       z     vdW  Elec       q    Type
REMARK                         _______ _______ _______ _____ _____    ______ ____
ROOT
ATOM      1  N   UNL     1     -12.520  15.063  71.178  0.00  0.00    +0.307 N 
ATOM      2  C   UNL     1     -13.942  15.303  71.389  0.00  0.00    +0.171 C 
ATOM      3  C   UNL     1     -11.764  15.488  72.340  0.00  0.00    +0.171 C 
ENDROOT
BRANCH   1   4
ATOM      4  C   UNL     1     -12.354  13.652  70.904  0.00  0.00    +0.109 C 
BRANCH   4   5
ATOM      5  C   UNL     1     -13.248  12.916  71.894  0.00  0.00    +0.061 C 
BRANCH   5   6
ATOM      6  C   UNL     1     -13.110  11.417  71.679  0.00  0.00    +0.006 C 
BRANCH   6   7
ATOM      7  C   UNL     1     -12.044  11.198  70.615  0.00  0.00    +0.000 C 
BRANCH   7   8
ATOM      8  C   UNL     1     -11.808   9.718  70.415  0.00  0.00    +0.000 C 
BRANCH   8   9
ATOM      9  C   UNL     1     -10.872   9.162  71.462  0.00  0.00    +0.000 C 
BRANCH   9  10
ATOM     10  C   UNL     1     -11.668   8.229  72.368  0.00  0.00    +0.000 C 
BRANCH  10  11
ATOM     11  C   UNL     1     -10.738   7.364  73.193  0.00  0.00    +0.000 C 
BRANCH  11  12
ATOM     12  C   UNL     1      -9.374   7.285  72.519  0.00  0.00    +0.000 C 
BRANCH  12  13
ATOM     13  C   UNL     1      -8.914   5.854  72.381  0.00  0.00    +0.000 C 
BRANCH  13  14
ATOM     14  C   UNL     1      -9.983   5.079  71.651  0.00  0.00    +0.000 C 
BRANCH  14  15
ATOM     15  C   UNL     1      -9.854   5.361  70.158  0.00  0.00    +0.000 C 
BRANCH  15  16
ATOM     16  C   UNL     1     -11.160   5.903  69.591  0.00  0.00    +0.000 C 
BRANCH  16  17
ATOM     17  C   UNL     1     -10.953   6.263  68.125  0.00  0.00    +0.000 C 
BRANCH  17  19
ATOM     18  C   UNL     1     -10.373   8.311  66.933  0.00  0.00    +0.000 C 
ATOM     19  C   UNL     1      -9.985   7.440  68.118  0.00  0.00    +0.000 C 
ENDBRANCH  17  19
ENDBRANCH  16  17
ENDBRANCH  15  16
ENDBRANCH  14  15
ENDBRANCH  13  14
ENDBRANCH  12  13
ENDBRANCH  11  12
ENDBRANCH  10  11
ENDBRANCH   9  10
ENDBRANCH   8   9
ENDBRANCH   7   8
ENDBRANCH   6   7
ENDBRANCH   5   6
ENDBRANCH   4   5
ENDBRANCH   1   4
BRANCH   1  20
ATOM     20  C   UNL     1     -12.141  15.835  70.004  0.00  0.00    +0.131 C 
BRANCH  20  21
ATOM     21  C   UNL     1     -10.646  15.735  69.807  0.00  0.00    +0.155 C 
BRANCH  21  22
ATOM     22  N   UNL     1     -10.269  15.949  68.412  0.00  0.00    -0.268 N 
ATOM     23  C   UNL     1      -9.952  17.286  68.014  0.00  0.00    +0.221 A 
ATOM     24  N   UNL     1     -10.566  17.787  66.930  0.00  0.00    -0.212 NA
ATOM     25  C   UNL     1     -10.687  19.126  66.759  0.00  0.00    +0.103 A 
ATOM     26  C   UNL     1      -9.978  20.016  67.557  0.00  0.00    +0.041 A 
ATOM     27  C   UNL     1      -9.431  19.489  68.717  0.00  0.00    +0.103 A 
ATOM     28  N   UNL     1      -9.487  18.161  68.938  0.00  0.00    -0.212 NA
BRANCH  22  29
ATOM     29  C   UNL     1      -9.843  14.782  67.680  0.00  0.00    +0.121 C 
BRANCH  29  30
ATOM     30  C   UNL     1     -10.982  13.936  67.234  0.00  0.00    -0.002 A 
ATOM     31  C   UNL     1     -10.974  12.552  67.345  0.00  0.00    +0.001 A 
ATOM     32  C   UNL     1     -11.480  11.771  66.314  0.00  0.00    +0.037 A 
ATOM     33  C   UNL     1     -12.090  12.336  65.200  0.00  0.00    +0.139 A 
ATOM     34  C   UNL     1     -12.476  13.663  65.353  0.00  0.00    +0.037 A 
ATOM     35  C   UNL     1     -11.906  14.459  66.337  0.00  0.00    +0.001 A 
BRANCH  33  36
ATOM     36  O   UNL     1     -11.929  11.789  63.924  0.00  0.00    -0.471 OA
ATOM     37  C   UNL     1     -10.649  11.247  63.634  0.00  0.00    +0.252 C 
ENDBRANCH  33  36
ENDBRANCH  29  30
ENDBRANCH  22  29
ENDBRANCH  21  22
ENDBRANCH  20  21
ENDBRANCH   1  20
TORSDOF 21
ENDMDL
MODEL 2
REMARK VINA RESULT:      -6.0      1.189      2.697
REMARK  Name = 
REMARK  21 active torsions:
REMARK  status: ('A' for Active; 'I' for Inactive)
REMARK    1  A    between atoms: C_2  and  C_3
REMARK    2  A    between atoms: C_3  and  C_4
REMARK    3  A    between atoms: C_4  and  C_5
REMARK    4  A    between atoms: C_5  and  C_6
REMARK    5  A    between atoms: C_6  and  C_7
REMARK    6  A    between atoms: C_7  and  C_8
REMARK    7  A    between atoms: C_8  and  C_9
REMARK    8  A    between atoms: C_9  and  C_10
REMARK    9  A    between atoms: C_10  and  C_11
REMARK   10  A    between atoms: C_11  and  C_12
REMARK   11  A    between atoms: C_12  and  C_13
REMARK   12  A    between atoms: C_13  and  C_14
REMARK   13  A    between atoms: C_14  and  C_15
REMARK   14  A    between atoms: C_15  and  C_16
REMARK   15  A    between atoms: C_16  and  N_17
REMARK   16  A    between atoms: N_17  and  C_20
REMARK   17  A    between atoms: C_20  and  C_21
REMARK   18  A    between atoms: C_21  and  N_22
REMARK   19  A    between atoms: N_22  and  C_23
REMARK   20  A    between atoms: C_23  and  C_24
REMARK   21  A    between atoms: C_27  and  O_28
REMARK                            x       y       z     vdW  Elec       q    Type
REMARK                         _______ _______ _______ _____ _____    ______ ____
ROOT
ATOM      1  N   UNL     1     -13.021  14.550  71.870  0.00  0.00    +0.307 N 
ATOM      2  C   UNL     1     -14.007  15.180  71.002  0.00  0.00    +0.171 C 
ATOM      3  C   UNL     1     -12.853  15.326  73.083  0.00  0.00    +0.171 C 
ENDROOT
BRANCH   1   4
ATOM      4  C   UNL     1     -13.476  13.203  72.141  0.00  0.00    +0.109 C 
BRANCH   4   5
ATOM      5  C   UNL     1     -12.662  12.287  71.237  0.00  0.00    +0.061 C 
BRANCH   5   6
ATOM      6  C   UNL     1     -13.126  10.851  71.426  0.00  0.00    +0.006 C 
BRANCH   6   7
ATOM      7  C   UNL     1     -11.907   9.949  71.294  0.00  0.00    +0.000 C 
BRANCH   7   8
ATOM      8  C   UNL     1     -11.341  10.045  69.896  0.00  0.00    +0.000 C 
BRANCH   8   9
ATOM      9  C   UNL     1      -9.836   9.915  69.900  0.00  0.00    +0.000 C 
BRANCH   9  10
ATOM     10  C   UNL     1      -9.405   9.308  68.570  0.00  0.00    +0.000 C 
BRANCH  10  11
ATOM     11  C   UNL     1     -10.585   9.191  67.629  0.00  0.00    +0.000 C 
BRANCH  11  12
ATOM     12  C   UNL     1     -10.735   7.748  67.167  0.00  0.00    +0.000 C 
BRANCH  12  13
ATOM     13  C   UNL     1      -9.730   6.848  67.844  0.00  0.00    +0.000 C 
BRANCH  13  14
ATOM     14  C   UNL     1     -10.476   5.722  68.517  0.00  0.00    +0.000 C 
BRANCH  14  15
ATOM     15  C   UNL     1     -11.292   6.300  69.668  0.00  0.00    +0.000 C 
BRANCH  15  16
ATOM     16  C   UNL     1     -10.510   6.239  70.975  0.00  0.00    +0.000 C 
BRANCH  16  17
ATOM     17  C   UNL     1     -11.488   6.292  72.142  0.00  0.00    +0.000 C 
BRANCH  17  19
ATOM     18  C   UNL     1      -9.419   7.459  72.693  0.00  0.00    +0.000 C 
ATOM     19  C   UNL     1     -10.808   7.130  73.217  0.00  0.00    +0.000 C 
ENDBRANCH  17  19
ENDBRANCH  16  17
ENDBRANCH  15  16
ENDBRANCH  14  15
ENDBRANCH  13  14
ENDBRANCH  12  13
ENDBRANCH  11  12
ENDBRANCH  10  11
ENDBRANCH   9  10
ENDBRANCH   8   9
ENDBRANCH   7   8
ENDBRANCH   6   7
ENDBRANCH   5   6
ENDBRANCH   4   5
ENDBRANCH   1   4
BRANCH   1  20
ATOM     20  C   UNL     1     -11.778  14.500  71.113  0.00  0.00    +0.131 C 
BRANCH  20  21
ATOM     21  C   UNL     1     -11.815  15.556  70.031  0.00  0.00    +0.155 C 
BRANCH  21  22
ATOM     22  N   UNL     1     -10.809  15.311  69.001  0.00  0.00    -0.268 N 
ATOM     23  C   UNL     1     -10.394  16.428  68.208  0.00  0.00    +0.221 A 
ATOM     24  N   UNL     1     -10.414  16.298  66.872  0.00  0.00    -0.212 NA
ATOM     25  C   UNL     1     -10.491  17.389  66.072  0.00  0.00    +0.103 A 
ATOM     26  C   UNL     1     -10.306  18.668  66.584  0.00  0.00    +0.041 A 
ATOM     27  C   UNL     1     -10.381  18.785  67.965  0.00  0.00    +0.103 A 
ATOM     28  N   UNL     1     -10.483  17.677  68.724  0.00  0.00    -0.212 NA
BRANCH  22  29
ATOM     29  C   UNL     1     -10.029  14.107  69.145  0.00  0.00    +0.121 C 
BRANCH  29  30
ATOM     30  C   UNL     1     -10.307  13.111  68.075  0.00  0.00    -0.002 A 
ATOM     31  C   UNL     1      -9.348  12.723  67.149  0.00  0.00    +0.001 A 
ATOM     32  C   UNL     1      -9.702  12.547  65.818  0.00  0.00    +0.037 A 
ATOM     33  C   UNL     1     -11.020  12.656  65.391  0.00  0.00    +0.139 A 
ATOM     34  C   UNL     1     -11.972  12.589  66.402  0.00  0.00    +0.037 A 
ATOM     35  C   UNL     1     -11.624  12.844  67.722  0.00  0.00    +0.001 A 
BRANCH  33  36
ATOM     36  O   UNL     1     -11.342  13.222  64.154  0.00  0.00    -0.471 OA
ATOM     37  C   UNL     1     -12.203  14.351  64.189  0.00  0.00    +0.252 C 
ENDBRANCH  33  36
ENDBRANCH  29  30
ENDBRANCH  22  29
ENDBRANCH  21  22
ENDBRANCH  20  21
ENDBRANCH   1  20
TORSDOF 21
ENDMDL
MODEL 3
REMARK VINA RESULT:      -5.9      2.176      4.500
REMARK  Name = 
REMARK  21 active torsions:
REMARK  status: ('A' for Active; 'I' for Inactive)
REMARK    1  A    between atoms: C_2  and  C_3
REMARK    2  A    between atoms: C_3  and  C_4
REMARK    3  A    between atoms: C_4  and  C_5
REMARK    4  A    between atoms: C_5  and  C_6
REMARK    5  A    between atoms: C_6  and  C_7
REMARK    6  A    between atoms: C_7  and  C_8
REMARK    7  A    between atoms: C_8  and  C_9
REMARK    8  A    between atoms: C_9  and  C_10
REMARK    9  A    between atoms: C_10  and  C_11
REMARK   10  A    between atoms: C_11  and  C_12
REMARK   11  A    between atoms: C_12  and  C_13
REMARK   12  A    between atoms: C_13  and  C_14
REMARK   13  A    between atoms: C_14  and  C_15
REMARK   14  A    between atoms: C_15  and  C_16
REMARK   15  A    between atoms: C_16  and  N_17
REMARK   16  A    between atoms: N_17  and  C_20
REMARK   17  A    between atoms: C_20  and  C_21
REMARK   18  A    between atoms: C_21  and  N_22
REMARK   19  A    between atoms: N_22  and  C_23
REMARK   20  A    between atoms: C_23  and  C_24
REMARK   21  A    between atoms: C_27  and  O_28
REMARK                            x       y       z     vdW  Elec       q    Type
REMARK                         _______ _______ _______ _____ _____    ______ ____
ROOT
ATOM      1  N   UNL     1     -11.013  13.615  65.530  0.00  0.00    +0.307 N 
ATOM      2  C   UNL     1     -10.571  13.084  64.247  0.00  0.00    +0.171 C 
ATOM      3  C   UNL     1     -12.444  13.439  65.678  0.00  0.00    +0.171 C 
ENDROOT
BRANCH   1   4
ATOM      4  C   UNL     1     -10.268  12.930  66.565  0.00  0.00    +0.109 C 
BRANCH   4   5
ATOM      5  C   UNL     1     -11.159  11.795  67.052  0.00  0.00    +0.061 C 
BRANCH   5   6
ATOM      6  C   UNL     1     -10.616  11.258  68.368  0.00  0.00    +0.006 C 
BRANCH   6   7
ATOM      7  C   UNL     1     -11.749  10.521  69.069  0.00  0.00    +0.000 C 
BRANCH   7   8
ATOM      8  C   UNL     1     -11.549  10.570  70.566  0.00  0.00    +0.000 C 
BRANCH   8   9
ATOM      9  C   UNL     1     -12.770  10.072  71.303  0.00  0.00    +0.000 C 
BRANCH   9  10
ATOM     10  C   UNL     1     -12.370   8.851  72.122  0.00  0.00    +0.000 C 
BRANCH  10  11
ATOM     11  C   UNL     1     -13.143   7.629  71.672  0.00  0.00    +0.000 C 
BRANCH  11  12
ATOM     12  C   UNL     1     -12.194   6.449  71.511  0.00  0.00    +0.000 C 
BRANCH  12  13
ATOM     13  C   UNL     1     -11.541   6.453  70.149  0.00  0.00    +0.000 C 
BRANCH  13  14
ATOM     14  C   UNL     1     -10.128   5.944  70.298  0.00  0.00    +0.000 C 
BRANCH  14  15
ATOM     15  C   UNL     1      -9.229   7.113  70.682  0.00  0.00    +0.000 C 
BRANCH  15  16
ATOM     16  C   UNL     1      -9.052   8.072  69.511  0.00  0.00    +0.000 C 
BRANCH  16  17
ATOM     17  C   UNL     1      -8.537   7.295  68.306  0.00  0.00    +0.000 C 
BRANCH  17  19
ATOM     18  C   UNL     1     -10.440   7.833  66.879  0.00  0.00    +0.000 C 
ATOM     19  C   UNL     1      -8.957   8.099  67.082  0.00  0.00    +0.000 C 
ENDBRANCH  17  19
ENDBRANCH  16  17
ENDBRANCH  15  16
ENDBRANCH  14  15
ENDBRANCH  13  14
ENDBRANCH  12  13
ENDBRANCH  11  12
ENDBRANCH  10  11
ENDBRANCH   9  10
ENDBRANCH   8   9
ENDBRANCH   7   8
ENDBRANCH   6   7
ENDBRANCH   5   6
ENDBRANCH   4   5
ENDBRANCH   1   4
BRANCH   1  20
ATOM     20  C   UNL     1     -10.663  15.029  65.533  0.00  0.00    +0.131 C 
BRANCH  20  21
ATOM     21  C   UNL     1      -9.830  15.330  66.758  0.00  0.00    +0.155 C 
BRANCH  21  22
ATOM     22  N   UNL     1     -10.465  16.331  67.612  0.00  0.00    -0.268 N 
ATOM     23  C   UNL     1     -10.012  17.683  67.489  0.00  0.00    +0.221 A 
ATOM     24  N   UNL     1      -9.662  18.338  68.607  0.00  0.00    -0.212 NA
ATOM     25  C   UNL     1      -8.818  19.397  68.553  0.00  0.00    +0.103 A 
ATOM     26  C   UNL     1      -8.487  19.988  67.340  0.00  0.00    +0.041 A 
ATOM     27  C   UNL     1      -8.780  19.248  66.204  0.00  0.00    +0.103 A 
ATOM     28  N   UNL     1      -9.473  18.097  66.317  0.00  0.00    -0.212 NA
BRANCH  22  29
ATOM     29  C   UNL     1     -11.741  15.970  68.176  0.00  0.00    +0.121 C 
BRANCH  29  30
ATOM     30  C   UNL     1     -11.613  15.130  69.398  0.00  0.00    -0.002 A 
ATOM     31  C   UNL     1     -12.505  14.111  69.701  0.00  0.00    +0.001 A 
ATOM     32  C   UNL     1     -12.931  13.929  71.010  0.00  0.00    +0.037 A 
ATOM     33  C   UNL     1     -12.415  14.681  72.058  0.00  0.00    +0.139 A 
ATOM     34  C   UNL     1     -11.226  15.344  71.775  0.00  0.00    +0.037 A 
ATOM     35  C   UNL     1     -10.847  15.592  70.462  0.00  0.00    +0.001 A 
BRANCH  33  36
ATOM     36  O   UNL     1     -13.219  15.096  73.123  0.00  0.00    -0.471 OA
ATOM     37  C   UNL     1     -12.537  15.610  74.258  0.00  0.00    +0.252 C 
ENDBRANCH  33  36
ENDBRANCH  29  30
ENDBRANCH  22  29
ENDBRANCH  21  22
ENDBRANCH  20  21
ENDBRANCH   1  20
TORSDOF 21
ENDMDL
MODEL 4
REMARK VINA RESULT:      -5.8      2.008      5.310
REMARK  Name = 
REMARK  21 active torsions:
REMARK  status: ('A' for Active; 'I' for Inactive)
REMARK    1  A    between atoms: C_2  and  C_3
REMARK    2  A    between atoms: C_3  and  C_4
REMARK    3  A    between atoms: C_4  and  C_5
REMARK    4  A    between atoms: C_5  and  C_6
REMARK    5  A    between atoms: C_6  and  C_7
REMARK    6  A    between atoms: C_7  and  C_8
REMARK    7  A    between atoms: C_8  and  C_9
REMARK    8  A    between atoms: C_9  and  C_10
REMARK    9  A    between atoms: C_10  and  C_11
REMARK   10  A    between atoms: C_11  and  C_12
REMARK   11  A    between atoms: C_12  and  C_13
REMARK   12  A    between atoms: C_13  and  C_14
REMARK   13  A    between atoms: C_14  and  C_15
REMARK   14  A    between atoms: C_15  and  C_16
REMARK   15  A    between atoms: C_16  and  N_17
REMARK   16  A    between atoms: N_17  and  C_20
REMARK   17  A    between atoms: C_20  and  C_21
REMARK   18  A    between atoms: C_21  and  N_22
REMARK   19  A    between atoms: N_22  and  C_23
REMARK   20  A    between atoms: C_23  and  C_24
REMARK   21  A    between atoms: C_27  and  O_28
REMARK                            x       y       z     vdW  Elec       q    Type
REMARK                         _______ _______ _______ _____ _____    ______ ____
ROOT
ATOM      1  N   UNL     1      -8.403  17.862  68.192  0.00  0.00    +0.307 N 
ATOM      2  C   UNL     1      -7.782  19.039  68.787  0.00  0.00    +0.171 C 
ATOM      3  C   UNL     1      -8.453  17.998  66.750  0.00  0.00    +0.171 C 
ENDROOT
BRANCH   1   4
ATOM      4  C   UNL     1      -7.634  16.708  68.607  0.00  0.00    +0.109 C 
BRANCH   4   5
ATOM      5  C   UNL     1      -7.135  16.046  67.329  0.00  0.00    +0.061 C 
BRANCH   5   6
ATOM      6  C   UNL     1      -6.738  14.609  67.628  0.00  0.00    +0.006 C 
BRANCH   6   7
ATOM      7  C   UNL     1      -7.857  13.980  68.447  0.00  0.00    +0.000 C 
BRANCH   7   8
ATOM      8  C   UNL     1      -7.972  12.509  68.120  0.00  0.00    +0.000 C 
BRANCH   8   9
ATOM      9  C   UNL     1      -7.989  12.274  66.628  0.00  0.00    +0.000 C 
BRANCH   9  10
ATOM     10  C   UNL     1      -8.027  10.770  66.381  0.00  0.00    +0.000 C 
BRANCH  10  11
ATOM     11  C   UNL     1      -8.998  10.437  65.268  0.00  0.00    +0.000 C 
BRANCH  11  12
ATOM     12  C   UNL     1     -10.156   9.617  65.823  0.00  0.00    +0.000 C 
BRANCH  12  13
ATOM     13  C   UNL     1      -9.718   8.775  66.996  0.00  0.00    +0.000 C 
BRANCH  13  14
ATOM     14  C   UNL     1     -10.767   8.881  68.076  0.00  0.00    +0.000 C 
BRANCH  14  15
ATOM     15  C   UNL     1     -11.061  10.356  68.325  0.00  0.00    +0.000 C 
BRANCH  15  16
ATOM     16  C   UNL     1     -11.286  10.625  69.807  0.00  0.00    +0.000 C 
BRANCH  16  17
ATOM     17  C   UNL     1     -10.576   9.549  70.620  0.00  0.00    +0.000 C 
BRANCH  17  19
ATOM     18  C   UNL     1     -12.759  10.063  71.579  0.00  0.00    +0.000 C 
ATOM     19  C   UNL     1     -11.538   9.171  71.740  0.00  0.00    +0.000 C 
ENDBRANCH  17  19
ENDBRANCH  16  17
ENDBRANCH  15  16
ENDBRANCH  14  15
ENDBRANCH  13  14
ENDBRANCH  12  13
ENDBRANCH  11  12
ENDBRANCH  10  11
ENDBRANCH   9  10
ENDBRANCH   8   9
ENDBRANCH   7   8
ENDBRANCH   6   7
ENDBRANCH   5   6
ENDBRANCH   4   5
ENDBRANCH   1   4
BRANCH   1  20
ATOM     20  C   UNL     1      -9.745  17.779  68.750  0.00  0.00    +0.131 C 
BRANCH  20  21
ATOM     21  C   UNL     1      -9.878  16.490  69.530  0.00  0.00    +0.155 C 
BRANCH  21  22
ATOM     22  N   UNL     1     -11.170  15.849  69.300  0.00  0.00    -0.268 N 
ATOM     23  C   UNL     1     -11.982  15.576  70.446  0.00  0.00    +0.221 A 
ATOM     24  N   UNL     1     -12.466  14.332  70.597  0.00  0.00    -0.212 NA
ATOM     25  C   UNL     1     -12.828  13.875  71.821  0.00  0.00    +0.103 A 
ATOM     26  C   UNL     1     -12.944  14.739  72.903  0.00  0.00    +0.041 A 
ATOM     27  C   UNL     1     -12.355  15.986  72.750  0.00  0.00    +0.103 A 
ATOM     28  N   UNL     1     -11.842  16.340  71.555  0.00  0.00    -0.212 NA
BRANCH  22  29
ATOM     29  C   UNL     1     -11.692  15.930  67.959  0.00  0.00    +0.121 C 
BRANCH  29  30
ATOM     30  C   UNL     1     -11.210  14.826  67.086  0.00  0.00    -0.002 A 
ATOM     31  C   UNL     1     -10.416  15.048  65.969  0.00  0.00    +0.001 A 
ATOM     32  C   UNL     1     -10.647  14.333  64.801  0.00  0.00    +0.037 A 
ATOM     33  C   UNL     1     -11.596  13.320  64.739  0.00  0.00    +0.139 A 
ATOM     34  C   UNL     1     -12.023  12.840  65.973  0.00  0.00    +0.037 A 
ATOM     35  C   UNL     1     -11.858  13.597  67.125  0.00  0.00    +0.001 A 
BRANCH  33  36
ATOM     36  O   UNL     1     -12.372  13.117  63.595  0.00  0.00    -0.471 OA
ATOM     37  C   UNL     1     -12.493  11.773  63.152  0.00  0.00    +0.252 C 
ENDBRANCH  33  36
ENDBRANCH  29  30
ENDBRANCH  22  29
ENDBRANCH  21  22
ENDBRANCH  20  21
ENDBRANCH   1  20
TORSDOF 21
ENDMDL
MODEL 5
REMARK VINA RESULT:      -5.8      2.155      4.481
REMARK  Name = 
REMARK  21 active torsions:
REMARK  status: ('A' for Active; 'I' for Inactive)
REMARK    1  A    between atoms: C_2  and  C_3
REMARK    2  A    between atoms: C_3  and  C_4
REMARK    3  A    between atoms: C_4  and  C_5
REMARK    4  A    between atoms: C_5  and  C_6
REMARK    5  A    between atoms: C_6  and  C_7
REMARK    6  A    between atoms: C_7  and  C_8
REMARK    7  A    between atoms: C_8  and  C_9
REMARK    8  A    between atoms: C_9  and  C_10
REMARK    9  A    between atoms: C_10  and  C_11
REMARK   10  A    between atoms: C_11  and  C_12
REMARK   11  A    between atoms: C_12  and  C_13
REMARK   12  A    between atoms: C_13  and  C_14
REMARK   13  A    between atoms: C_14  and  C_15
REMARK   14  A    between atoms: C_15  and  C_16
REMARK   15  A    between atoms: C_16  and  N_17
REMARK   16  A    between atoms: N_17  and  C_20
REMARK   17  A    between atoms: C_20  and  C_21
REMARK   18  A    between atoms: C_21  and  N_22
REMARK   19  A    between atoms: N_22  and  C_23
REMARK   20  A    between atoms: C_23  and  C_24
REMARK   21  A    between atoms: C_27  and  O_28
REMARK                            x       y       z     vdW  Elec       q    Type
REMARK                         _______ _______ _______ _____ _____    ______ ____
ROOT
ATOM      1  N   UNL     1     -10.655  13.153  65.962  0.00  0.00    +0.307 N 
ATOM      2  C   UNL     1     -10.568  12.831  64.543  0.00  0.00    +0.171 C 
ATOM      3  C   UNL     1     -12.042  13.221  66.375  0.00  0.00    +0.171 C 
ENDROOT
BRANCH   1   4
ATOM      4  C   UNL     1      -9.917  12.139  66.684  0.00  0.00    +0.109 C 
BRANCH   4   5
ATOM      5  C   UNL     1     -10.932  11.077  67.085  0.00  0.00    +0.061 C 
BRANCH   5   6
ATOM      6  C   UNL     1     -10.568  10.524  68.454  0.00  0.00    +0.006 C 
BRANCH   6   7
ATOM      7  C   UNL     1     -11.838  10.488  69.292  0.00  0.00    +0.000 C 
BRANCH   7   8
ATOM      8  C   UNL     1     -11.526   9.989  70.684  0.00  0.00    +0.000 C 
BRANCH   8   9
ATOM      9  C   UNL     1     -12.778   9.864  71.520  0.00  0.00    +0.000 C 
BRANCH   9  10
ATOM     10  C   UNL     1     -12.885   8.424  72.008  0.00  0.00    +0.000 C 
BRANCH  10  11
ATOM     11  C   UNL     1     -11.520   7.771  72.050  0.00  0.00    +0.000 C 
BRANCH  11  12
ATOM     12  C   UNL     1     -11.544   6.473  71.254  0.00  0.00    +0.000 C 
BRANCH  12  13
ATOM     13  C   UNL     1     -10.156   5.904  71.092  0.00  0.00    +0.000 C 
BRANCH  13  14
ATOM     14  C   UNL     1      -9.871   5.755  69.617  0.00  0.00    +0.000 C 
BRANCH  14  15
ATOM     15  C   UNL     1     -11.121   6.149  68.839  0.00  0.00    +0.000 C 
BRANCH  15  16
ATOM     16  C   UNL     1     -10.859   6.127  67.339  0.00  0.00    +0.000 C 
BRANCH  16  17
ATOM     17  C   UNL     1     -10.295   7.477  66.913  0.00  0.00    +0.000 C 
BRANCH  17  19
ATOM     18  C   UNL     1      -8.776   8.387  65.236  0.00  0.00    +0.000 C 
ATOM     19  C   UNL     1      -9.040   7.169  66.106  0.00  0.00    +0.000 C 
ENDBRANCH  17  19
ENDBRANCH  16  17
ENDBRANCH  15  16
ENDBRANCH  14  15
ENDBRANCH  13  14
ENDBRANCH  12  13
ENDBRANCH  11  12
ENDBRANCH  10  11
ENDBRANCH   9  10
ENDBRANCH   8   9
ENDBRANCH   7   8
ENDBRANCH   6   7
ENDBRANCH   5   6
ENDBRANCH   4   5
ENDBRANCH   1   4
BRANCH   1  20
ATOM     20  C   UNL     1     -10.002  14.444  66.131  0.00  0.00    +0.131 C 
BRANCH  20  21
ATOM     21  C   UNL     1     -10.907  15.355  66.929  0.00  0.00    +0.155 C 
BRANCH  21  22
ATOM     22  N   UNL     1     -10.237  15.878  68.117  0.00  0.00    -0.268 N 
ATOM     23  C   UNL     1     -10.024  17.292  68.183  0.00  0.00    +0.221 A 
ATOM     24  N   UNL     1      -8.786  17.734  68.458  0.00  0.00    -0.212 NA
ATOM     25  C   UNL     1      -8.400  18.980  68.094  0.00  0.00    +0.103 A 
ATOM     26  C   UNL     1      -9.326  19.918  67.653  0.00  0.00    +0.041 A 
ATOM     27  C   UNL     1     -10.568  19.419  67.290  0.00  0.00    +0.103 A 
ATOM     28  N   UNL     1     -10.855  18.120  67.507  0.00  0.00    -0.212 NA
BRANCH  22  29
ATOM     29  C   UNL     1     -10.231  15.021  69.275  0.00  0.00    +0.121 C 
BRANCH  29  30
ATOM     30  C   UNL     1     -11.574  14.895  69.903  0.00  0.00    -0.002 A 
ATOM     31  C   UNL     1     -12.230  15.970  70.488  0.00  0.00    +0.001 A 
ATOM     32  C   UNL     1     -12.920  15.796  71.680  0.00  0.00    +0.037 A 
ATOM     33  C   UNL     1     -13.060  14.545  72.269  0.00  0.00    +0.139 A 
ATOM     34  C   UNL     1     -12.792  13.469  71.430  0.00  0.00    +0.037 A 
ATOM     35  C   UNL     1     -12.033  13.638  70.279  0.00  0.00    +0.001 A 
BRANCH  33  36
ATOM     36  O   UNL     1     -13.027  14.383  73.657  0.00  0.00    -0.471 OA
ATOM     37  C   UNL     1     -12.414  15.431  74.393  0.00  0.00    +0.252 C 
ENDBRANCH  33  36
ENDBRANCH  29  30
ENDBRANCH  22  29
ENDBRANCH  21  22
ENDBRANCH  20  21
ENDBRANCH   1  20
TORSDOF 21
ENDMDL
MODEL 6
REMARK VINA RESULT:      -5.7      2.180      4.906
REMARK  Name = 
REMARK  21 active torsions:
REMARK  status: ('A' for Active; 'I' for Inactive)
REMARK    1  A    between atoms: C_2  and  C_3
REMARK    2  A    between atoms: C_3  and  C_4
REMARK    3  A    between atoms: C_4  and  C_5
REMARK    4  A    between atoms: C_5  and  C_6
REMARK    5  A    between atoms: C_6  and  C_7
REMARK    6  A    between atoms: C_7  and  C_8
REMARK    7  A    between atoms: C_8  and  C_9
REMARK    8  A    between atoms: C_9  and  C_10
REMARK    9  A    between atoms: C_10  and  C_11
REMARK   10  A    between atoms: C_11  and  C_12
REMARK   11  A    between atoms: C_12  and  C_13
REMARK   12  A    between atoms: C_13  and  C_14
REMARK   13  A    between atoms: C_14  and  C_15
REMARK   14  A    between atoms: C_15  and  C_16
REMARK   15  A    between atoms: C_16  and  N_17
REMARK   16  A    between atoms: N_17  and  C_20
REMARK   17  A    between atoms: C_20  and  C_21
REMARK   18  A    between atoms: C_21  and  N_22
REMARK   19  A    between atoms: N_22  and  C_23
REMARK   20  A    between atoms: C_23  and  C_24
REMARK   21  A    between atoms: C_27  and  O_28
REMARK                            x       y       z     vdW  Elec       q    Type
REMARK                         _______ _______ _______ _____ _____    ______ ____
ROOT
ATOM      1  N   UNL     1     -11.216  13.217  65.731  0.00  0.00    +0.307 N 
ATOM      2  C   UNL     1     -10.700  13.188  64.368  0.00  0.00    +0.171 C 
ATOM      3  C   UNL     1     -12.476  13.933  65.772  0.00  0.00    +0.171 C 
ENDROOT
BRANCH   1   4
ATOM      4  C   UNL     1     -11.351  11.846  66.174  0.00  0.00    +0.109 C 
BRANCH   4   5
ATOM      5  C   UNL     1     -10.499  11.719  67.431  0.00  0.00    +0.061 C 
BRANCH   5   6
ATOM      6  C   UNL     1     -10.161  10.255  67.664  0.00  0.00    +0.006 C 
BRANCH   6   7
ATOM      7  C   UNL     1     -10.033  10.043  69.166  0.00  0.00    +0.000 C 
BRANCH   7   8
ATOM      8  C   UNL     1      -8.928   9.054  69.457  0.00  0.00    +0.000 C 
BRANCH   8   9
ATOM      9  C   UNL     1      -8.389   8.439  68.186  0.00  0.00    +0.000 C 
BRANCH   9  10
ATOM     10  C   UNL     1      -7.574   7.206  68.559  0.00  0.00    +0.000 C 
BRANCH  10  11
ATOM     11  C   UNL     1      -8.129   6.558  69.811  0.00  0.00    +0.000 C 
BRANCH  11  12
ATOM     12  C   UNL     1      -8.726   5.200  69.468  0.00  0.00    +0.000 C 
BRANCH  12  13
ATOM     13  C   UNL     1     -10.100   5.038  70.071  0.00  0.00    +0.000 C 
BRANCH  13  14
ATOM     14  C   UNL     1     -11.020   6.055  69.440  0.00  0.00    +0.000 C 
BRANCH  14  15
ATOM     15  C   UNL     1     -11.996   6.550  70.502  0.00  0.00    +0.000 C 
BRANCH  15  16
ATOM     16  C   UNL     1     -11.291   6.758  71.836  0.00  0.00    +0.000 C 
BRANCH  16  17
ATOM     17  C   UNL     1     -11.273   8.246  72.162  0.00  0.00    +0.000 C 
BRANCH  17  19
ATOM     18  C   UNL     1     -12.953   9.891  71.516  0.00  0.00    +0.000 C 
ATOM     19  C   UNL     1     -12.729   8.647  72.361  0.00  0.00    +0.000 C 
ENDBRANCH  17  19
ENDBRANCH  16  17
ENDBRANCH  15  16
ENDBRANCH  14  15
ENDBRANCH  13  14
ENDBRANCH  12  13
ENDBRANCH  11  12
ENDBRANCH  10  11
ENDBRANCH   9  10
ENDBRANCH   8   9
ENDBRANCH   7   8
ENDBRANCH   6   7
ENDBRANCH   5   6
ENDBRANCH   4   5
ENDBRANCH   1   4
BRANCH   1  20
ATOM     20  C   UNL     1     -10.211  13.894  66.537  0.00  0.00    +0.131 C 
BRANCH  20  21
ATOM     21  C   UNL     1     -10.657  15.316  66.794  0.00  0.00    +0.155 C 
BRANCH  21  22
ATOM     22  N   UNL     1     -10.122  15.832  68.052  0.00  0.00    -0.268 N 
ATOM     23  C   UNL     1     -10.007  17.252  68.184  0.00  0.00    +0.221 A 
ATOM     24  N   UNL     1      -8.827  17.758  68.578  0.00  0.00    -0.212 NA
ATOM     25  C   UNL     1      -8.493  19.039  68.291  0.00  0.00    +0.103 A 
ATOM     26  C   UNL     1      -9.439  19.935  67.806  0.00  0.00    +0.041 A 
ATOM     27  C   UNL     1     -10.612  19.375  67.321  0.00  0.00    +0.103 A 
ATOM     28  N   UNL     1     -10.832  18.053  67.469  0.00  0.00    -0.212 NA
BRANCH  22  29
ATOM     29  C   UNL     1     -10.156  14.931  69.177  0.00  0.00    +0.121 C 
BRANCH  29  30
ATOM     30  C   UNL     1     -11.515  14.803  69.769  0.00  0.00    -0.002 A 
ATOM     31  C   UNL     1     -12.191  15.879  70.328  0.00  0.00    +0.001 A 
ATOM     32  C   UNL     1     -12.912  15.711  71.503  0.00  0.00    +0.037 A 
ATOM     33  C   UNL     1     -13.061  14.464  72.097  0.00  0.00    +0.139 A 
ATOM     34  C   UNL     1     -12.766  13.383  71.273  0.00  0.00    +0.037 A 
ATOM     35  C   UNL     1     -11.977  13.547  70.142  0.00  0.00    +0.001 A 
BRANCH  33  36
ATOM     36  O   UNL     1     -13.066  14.313  73.486  0.00  0.00    -0.471 OA
ATOM     37  C   UNL     1     -12.427  15.341  74.228  0.00  0.00    +0.252 C 
ENDBRANCH  33  36
ENDBRANCH  29  30
ENDBRANCH  22  29
ENDBRANCH  21  22
ENDBRANCH  20  21
ENDBRANCH   1  20
TORSDOF 21
ENDMDL
MODEL 7
REMARK VINA RESULT:      -5.6      2.283      4.760
REMARK  Name = 
REMARK  21 active torsions:
REMARK  status: ('A' for Active; 'I' for Inactive)
REMARK    1  A    between atoms: C_2  and  C_3
REMARK    2  A    between atoms: C_3  and  C_4
REMARK    3  A    between atoms: C_4  and  C_5
REMARK    4  A    between atoms: C_5  and  C_6
REMARK    5  A    between atoms: C_6  and  C_7
REMARK    6  A    between atoms: C_7  and  C_8
REMARK    7  A    between atoms: C_8  and  C_9
REMARK    8  A    between atoms: C_9  and  C_10
REMARK    9  A    between atoms: C_10  and  C_11
REMARK   10  A    between atoms: C_11  and  C_12
REMARK   11  A    between atoms: C_12  and  C_13
REMARK   12  A    between atoms: C_13  and  C_14
REMARK   13  A    between atoms: C_14  and  C_15
REMARK   14  A    between atoms: C_15  and  C_16
REMARK   15  A    between atoms: C_16  and  N_17
REMARK   16  A    between atoms: N_17  and  C_20
REMARK   17  A    between atoms: C_20  and  C_21
REMARK   18  A    between atoms: C_21  and  N_22
REMARK   19  A    between atoms: N_22  and  C_23
REMARK   20  A    between atoms: C_23  and  C_24
REMARK   21  A    between atoms: C_27  and  O_28
REMARK                            x       y       z     vdW  Elec       q    Type
REMARK                         _______ _______ _______ _____ _____    ______ ____
ROOT
ATOM      1  N   UNL     1     -11.112  12.845  65.045  0.00  0.00    +0.307 N 
ATOM      2  C   UNL     1     -10.411  12.306  63.887  0.00  0.00    +0.171 C 
ATOM      3  C   UNL     1     -12.462  13.226  64.679  0.00  0.00    +0.171 C 
ENDROOT
BRANCH   1   4
ATOM      4  C   UNL     1     -11.090  11.831  66.078  0.00  0.00    +0.109 C 
BRANCH   4   5
ATOM      5  C   UNL     1      -9.653  11.331  66.154  0.00  0.00    +0.061 C 
BRANCH   5   6
ATOM      6  C   UNL     1      -9.505  10.407  67.353  0.00  0.00    +0.006 C 
BRANCH   6   7
ATOM      7  C   UNL     1     -10.887   9.868  67.696  0.00  0.00    +0.000 C 
BRANCH   7   8
ATOM      8  C   UNL     1     -11.091   9.886  69.193  0.00  0.00    +0.000 C 
BRANCH   8   9
ATOM      9  C   UNL     1      -9.773   9.935  69.930  0.00  0.00    +0.000 C 
BRANCH   9  10
ATOM     10  C   UNL     1      -9.889   9.065  71.176  0.00  0.00    +0.000 C 
BRANCH  10  11
ATOM     11  C   UNL     1     -11.295   9.118  71.736  0.00  0.00    +0.000 C 
BRANCH  11  12
ATOM     12  C   UNL     1     -11.593   7.839  72.506  0.00  0.00    +0.000 C 
BRANCH  12  13
ATOM     13  C   UNL     1     -12.228   6.799  71.616  0.00  0.00    +0.000 C 
BRANCH  13  14
ATOM     14  C   UNL     1     -11.133   6.085  70.861  0.00  0.00    +0.000 C 
BRANCH  14  15
ATOM     15  C   UNL     1     -11.420   6.197  69.368  0.00  0.00    +0.000 C 
BRANCH  15  16
ATOM     16  C   UNL     1     -10.160   5.945  68.550  0.00  0.00    +0.000 C 
BRANCH  16  17
ATOM     17  C   UNL     1     -10.429   6.315  67.097  0.00  0.00    +0.000 C 
BRANCH  17  19
ATOM     18  C   UNL     1      -9.523   4.051  67.049  0.00  0.00    +0.000 C 
ATOM     19  C   UNL     1     -10.475   4.997  66.334  0.00  0.00    +0.000 C 
ENDBRANCH  17  19
ENDBRANCH  16  17
ENDBRANCH  15  16
ENDBRANCH  14  15
ENDBRANCH  13  14
ENDBRANCH  12  13
ENDBRANCH  11  12
ENDBRANCH  10  11
ENDBRANCH   9  10
ENDBRANCH   8   9
ENDBRANCH   7   8
ENDBRANCH   6   7
ENDBRANCH   5   6
ENDBRANCH   4   5
ENDBRANCH   1   4
BRANCH   1  20
ATOM     20  C   UNL     1     -10.350  14.004  65.485  0.00  0.00    +0.131 C 
BRANCH  20  21
ATOM     21  C   UNL     1     -11.104  14.702  66.594  0.00  0.00    +0.155 C 
BRANCH  21  22
ATOM     22  N   UNL     1     -10.203  15.207  67.626  0.00  0.00    -0.268 N 
ATOM     23  C   UNL     1      -9.706  16.540  67.471  0.00  0.00    +0.221 A 
ATOM     24  N   UNL     1      -8.381  16.737  67.562  0.00  0.00    -0.212 NA
ATOM     25  C   UNL     1      -7.801  17.820  66.989  0.00  0.00    +0.103 A 
ATOM     26  C   UNL     1      -8.569  18.874  66.509  0.00  0.00    +0.041 A 
ATOM     27  C   UNL     1      -9.921  18.612  66.340  0.00  0.00    +0.103 A 
ATOM     28  N   UNL     1     -10.432  17.440  66.766  0.00  0.00    -0.212 NA
BRANCH  22  29
ATOM     29  C   UNL     1     -10.227  14.513  68.889  0.00  0.00    +0.121 C 
BRANCH  29  30
ATOM     30  C   UNL     1     -11.585  14.466  69.494  0.00  0.00    -0.002 A 
ATOM     31  C   UNL     1     -12.232  15.601  69.966  0.00  0.00    +0.001 A 
ATOM     32  C   UNL     1     -12.951  15.545  71.153  0.00  0.00    +0.037 A 
ATOM     33  C   UNL     1     -13.128  14.354  71.846  0.00  0.00    +0.139 A 
ATOM     34  C   UNL     1     -12.863  13.203  71.112  0.00  0.00    +0.037 A 
ATOM     35  C   UNL     1     -12.076  13.256  69.969  0.00  0.00    +0.001 A 
BRANCH  33  36
ATOM     36  O   UNL     1     -13.129  14.316  73.244  0.00  0.00    -0.471 OA
ATOM     37  C   UNL     1     -12.511  15.414  73.899  0.00  0.00    +0.252 C 
ENDBRANCH  33  36
ENDBRANCH  29  30
ENDBRANCH  22  29
ENDBRANCH  21  22
ENDBRANCH  20  21
ENDBRANCH   1  20
TORSDOF 21
ENDMDL
MODEL 8
REMARK VINA RESULT:      -5.6      2.328      5.645
REMARK  Name = 
REMARK  21 active torsions:
REMARK  status: ('A' for Active; 'I' for Inactive)
REMARK    1  A    between atoms: C_2  and  C_3
REMARK    2  A    between atoms: C_3  and  C_4
REMARK    3  A    between atoms: C_4  and  C_5
REMARK    4  A    between atoms: C_5  and  C_6
REMARK    5  A    between atoms: C_6  and  C_7
REMARK    6  A    between atoms: C_7  and  C_8
REMARK    7  A    between atoms: C_8  and  C_9
REMARK    8  A    between atoms: C_9  and  C_10
REMARK    9  A    between atoms: C_10  and  C_11
REMARK   10  A    between atoms: C_11  and  C_12
REMARK   11  A    between atoms: C_12  and  C_13
REMARK   12  A    between atoms: C_13  and  C_14
REMARK   13  A    between atoms: C_14  and  C_15
REMARK   14  A    between atoms: C_15  and  C_16
REMARK   15  A    between atoms: C_16  and  N_17
REMARK   16  A    between atoms: N_17  and  C_20
REMARK   17  A    between atoms: C_20  and  C_21
REMARK   18  A    between atoms: C_21  and  N_22
REMARK   19  A    between atoms: N_22  and  C_23
REMARK   20  A    between atoms: C_23  and  C_24
REMARK   21  A    between atoms: C_27  and  O_28
REMARK                            x       y       z     vdW  Elec       q    Type
REMARK                         _______ _______ _______ _____ _____    ______ ____
ROOT
ATOM      1  N   UNL     1     -11.191  13.801  65.563  0.00  0.00    +0.307 N 
ATOM      2  C   UNL     1     -11.040  15.137  65.002  0.00  0.00    +0.171 C 
ATOM      3  C   UNL     1     -12.571  13.368  65.460  0.00  0.00    +0.171 C 
ENDROOT
BRANCH   1   4
ATOM      4  C   UNL     1     -10.288  12.925  64.848  0.00  0.00    +0.109 C 
BRANCH   4   5
ATOM      5  C   UNL     1     -11.060  11.638  64.584  0.00  0.00    +0.061 C 
BRANCH   5   6
ATOM      6  C   UNL     1     -10.128  10.448  64.754  0.00  0.00    +0.006 C 
BRANCH   6   7
ATOM      7  C   UNL     1      -9.705  10.396  66.215  0.00  0.00    +0.000 C 
BRANCH   7   8
ATOM      8  C   UNL     1     -10.903  10.110  67.090  0.00  0.00    +0.000 C 
BRANCH   8   9
ATOM      9  C   UNL     1     -10.559  10.234  68.556  0.00  0.00    +0.000 C 
BRANCH   9  10
ATOM     10  C   UNL     1     -11.848  10.479  69.332  0.00  0.00    +0.000 C 
BRANCH  10  11
ATOM     11  C   UNL     1     -11.605  10.362  70.822  0.00  0.00    +0.000 C 
BRANCH  11  12
ATOM     12  C   UNL     1     -12.888   9.936  71.522  0.00  0.00    +0.000 C 
BRANCH  12  13
ATOM     13  C   UNL     1     -12.716   8.610  72.221  0.00  0.00    +0.000 C 
BRANCH  13  14
ATOM     14  C   UNL     1     -11.242   8.293  72.285  0.00  0.00    +0.000 C 
BRANCH  14  15
ATOM     15  C   UNL     1     -11.074   6.854  72.761  0.00  0.00    +0.000 C 
BRANCH  15  16
ATOM     16  C   UNL     1     -10.922   5.903  71.581  0.00  0.00    +0.000 C 
BRANCH  16  17
ATOM     17  C   UNL     1     -10.443   6.690  70.367  0.00  0.00    +0.000 C 
BRANCH  17  19
ATOM     18  C   UNL     1     -10.535   6.575  67.933  0.00  0.00    +0.000 C 
ATOM     19  C   UNL     1     -11.297   6.213  69.199  0.00  0.00    +0.000 C 
ENDBRANCH  17  19
ENDBRANCH  16  17
ENDBRANCH  15  16
ENDBRANCH  14  15
ENDBRANCH  13  14
ENDBRANCH  12  13
ENDBRANCH  11  12
ENDBRANCH  10  11
ENDBRANCH   9  10
ENDBRANCH   8   9
ENDBRANCH   7   8
ENDBRANCH   6   7
ENDBRANCH   5   6
ENDBRANCH   4   5
ENDBRANCH   1   4
BRANCH   1  20
ATOM     20  C   UNL     1     -10.781  13.891  66.957  0.00  0.00    +0.131 C 
BRANCH  20  21
ATOM     21  C   UNL     1     -11.556  15.000  67.630  0.00  0.00    +0.155 C 
BRANCH  21  22
ATOM     22  N   UNL     1     -10.828  15.555  68.768  0.00  0.00    -0.268 N 
ATOM     23  C   UNL     1     -11.288  15.205  70.078  0.00  0.00    +0.221 A 
ATOM     24  N   UNL     1     -11.511  16.195  70.957  0.00  0.00    -0.212 NA
ATOM     25  C   UNL     1     -12.352  16.014  72.004  0.00  0.00    +0.103 A 
ATOM     26  C   UNL     1     -12.814  14.748  72.342  0.00  0.00    +0.041 A 
ATOM     27  C   UNL     1     -12.650  13.765  71.377  0.00  0.00    +0.103 A 
ATOM     28  N   UNL     1     -11.952  14.038  70.257  0.00  0.00    -0.212 NA
BRANCH  22  29
ATOM     29  C   UNL     1      -9.498  16.042  68.499  0.00  0.00    +0.121 C 
BRANCH  29  30
ATOM     30  C   UNL     1      -9.497  17.313  67.726  0.00  0.00    -0.002 A 
ATOM     31  C   UNL     1      -8.696  17.507  66.609  0.00  0.00    +0.001 A 
ATOM     32  C   UNL     1      -8.057  18.725  66.417  0.00  0.00    +0.037 A 
ATOM     33  C   UNL     1      -8.271  19.805  67.266  0.00  0.00    +0.139 A 
ATOM     34  C   UNL     1      -9.401  19.704  68.069  0.00  0.00    +0.037 A 
ATOM     35  C   UNL     1      -9.986  18.470  68.320  0.00  0.00    +0.001 A 
BRANCH  33  36
ATOM     36  O   UNL     1      -7.236  20.680  67.608  0.00  0.00    -0.471 OA
ATOM     37  C   UNL     1      -6.398  20.268  68.677  0.00  0.00    +0.252 C 
ENDBRANCH  33  36
ENDBRANCH  29  30
ENDBRANCH  22  29
ENDBRANCH  21  22
ENDBRANCH  20  21
ENDBRANCH   1  20
TORSDOF 21
ENDMDL
MODEL 9
REMARK VINA RESULT:      -5.6      1.940      3.811
REMARK  Name = 
REMARK  21 active torsions:
REMARK  status: ('A' for Active; 'I' for Inactive)
REMARK    1  A    between atoms: C_2  and  C_3
REMARK    2  A    between atoms: C_3  and  C_4
REMARK    3  A    between atoms: C_4  and  C_5
REMARK    4  A    between atoms: C_5  and  C_6
REMARK    5  A    between atoms: C_6  and  C_7
REMARK    6  A    between atoms: C_7  and  C_8
REMARK    7  A    between atoms: C_8  and  C_9
REMARK    8  A    between atoms: C_9  and  C_10
REMARK    9  A    between atoms: C_10  and  C_11
REMARK   10  A    between atoms: C_11  and  C_12
REMARK   11  A    between atoms: C_12  and  C_13
REMARK   12  A    between atoms: C_13  and  C_14
REMARK   13  A    between atoms: C_14  and  C_15
REMARK   14  A    between atoms: C_15  and  C_16
REMARK   15  A    between atoms: C_16  and  N_17
REMARK   16  A    between atoms: N_17  and  C_20
REMARK   17  A    between atoms: C_20  and  C_21
REMARK   18  A    between atoms: C_21  and  N_22
REMARK   19  A    between atoms: N_22  and  C_23
REMARK   20  A    between atoms: C_23  and  C_24
REMARK   21  A    between atoms: C_27  and  O_28
REMARK                            x       y       z     vdW  Elec       q    Type
REMARK                         _______ _______ _______ _____ _____    ______ ____
ROOT
ATOM      1  N   UNL     1     -12.811  15.154  71.333  0.00  0.00    +0.307 N 
ATOM      2  C   UNL     1     -14.267  15.216  71.316  0.00  0.00    +0.171 C 
ATOM      3  C   UNL     1     -12.291  15.910  72.455  0.00  0.00    +0.171 C 
ENDROOT
BRANCH   1   4
ATOM      4  C   UNL     1     -12.435  13.758  71.393  0.00  0.00    +0.109 C 
BRANCH   4   5
ATOM      5  C   UNL     1     -13.576  13.040  72.103  0.00  0.00    +0.061 C 
BRANCH   5   6
ATOM      6  C   UNL     1     -13.349  11.538  72.029  0.00  0.00    +0.006 C 
BRANCH   6   7
ATOM      7  C   UNL     1     -12.418  11.268  70.855  0.00  0.00    +0.000 C 
BRANCH   7   8
ATOM      8  C   UNL     1     -12.078   9.796  70.792  0.00  0.00    +0.000 C 
BRANCH   8   9
ATOM      9  C   UNL     1     -10.589   9.578  70.662  0.00  0.00    +0.000 C 
BRANCH   9  10
ATOM     10  C   UNL     1     -10.277   9.260  69.205  0.00  0.00    +0.000 C 
BRANCH  10  11
ATOM     11  C   UNL     1      -9.241  10.220  68.658  0.00  0.00    +0.000 C 
BRANCH  11  12
ATOM     12  C   UNL     1      -8.453   9.549  67.542  0.00  0.00    +0.000 C 
BRANCH  12  13
ATOM     13  C   UNL     1      -8.638  10.270  66.230  0.00  0.00    +0.000 C 
BRANCH  13  14
ATOM     14  C   UNL     1     -10.040  10.009  65.736  0.00  0.00    +0.000 C 
BRANCH  14  15
ATOM     15  C   UNL     1     -10.088  10.292  64.239  0.00  0.00    +0.000 C 
BRANCH  15  16
ATOM     16  C   UNL     1      -8.685  10.352  63.650  0.00  0.00    +0.000 C 
BRANCH  16  17
ATOM     17  C   UNL     1      -8.742  11.056  62.300  0.00  0.00    +0.000 C 
BRANCH  17  19
ATOM     18  C   UNL     1      -7.089  10.032  60.828  0.00  0.00    +0.000 C 
ATOM     19  C   UNL     1      -8.548   9.966  61.253  0.00  0.00    +0.000 C 
ENDBRANCH  17  19
ENDBRANCH  16  17
ENDBRANCH  15  16
ENDBRANCH  14  15
ENDBRANCH  13  14
ENDBRANCH  12  13
ENDBRANCH  11  12
ENDBRANCH  10  11
ENDBRANCH   9  10
ENDBRANCH   8   9
ENDBRANCH   7   8
ENDBRANCH   6   7
ENDBRANCH   5   6
ENDBRANCH   4   5
ENDBRANCH   1   4
BRANCH   1  20
ATOM     20  C   UNL     1     -12.360  15.726  70.072  0.00  0.00    +0.131 C 
BRANCH  20  21
ATOM     21  C   UNL     1     -10.945  16.234  70.236  0.00  0.00    +0.155 C 
BRANCH  21  22
ATOM     22  N   UNL     1     -10.165  16.066  69.013  0.00  0.00    -0.268 N 
ATOM     23  C   UNL     1      -9.946  17.229  68.208  0.00  0.00    +0.221 A 
ATOM     24  N   UNL     1     -10.235  17.157  66.899  0.00  0.00    -0.212 NA
ATOM     25  C   UNL     1     -10.499  18.279  66.186  0.00  0.00    +0.103 A 
ATOM     26  C   UNL     1     -10.242  19.539  66.712  0.00  0.00    +0.041 A 
ATOM     27  C   UNL     1     -10.036  19.594  68.083  0.00  0.00    +0.103 A 
ATOM     28  N   UNL     1      -9.956  18.451  68.792  0.00  0.00    -0.212 NA
BRANCH  22  29
ATOM     29  C   UNL     1      -9.345  14.883  68.936  0.00  0.00    +0.121 C 
BRANCH  29  30
ATOM     30  C   UNL     1      -9.824  13.918  67.911  0.00  0.00    -0.002 A 
ATOM     31  C   UNL     1      -9.372  13.936  66.598  0.00  0.00    +0.001 A 
ATOM     32  C   UNL     1     -10.265  13.730  65.555  0.00  0.00    +0.037 A 
ATOM     33  C   UNL     1     -11.597  13.406  65.785  0.00  0.00    +0.139 A 
ATOM     34  C   UNL     1     -11.878  12.958  67.070  0.00  0.00    +0.037 A 
ATOM     35  C   UNL     1     -11.017  13.237  68.124  0.00  0.00    +0.001 A 
BRANCH  33  36
ATOM     36  O   UNL     1     -12.619  13.901  64.970  0.00  0.00    -0.471 OA
ATOM     37  C   UNL     1     -12.326  15.090  64.251  0.00  0.00    +0.252 C 
ENDBRANCH  33  36
ENDBRANCH  29  30
ENDBRANCH  22  29
ENDBRANCH  21  22
ENDBRANCH  20  21
ENDBRANCH   1  20
TORSDOF 21
ENDMDL
