MODEL 1
REMARK VINA RESULT:      -7.7      0.000      0.000
REMARK  Name = 
REMARK  3 active torsions:
REMARK  status: ('A' for Active; 'I' for Inactive)
REMARK    1  A    between atoms: N_2  and  C_4
REMARK    2  A    between atoms: C_15  and  N_16
REMARK    3  A    between atoms: C_21  and  C_22
REMARK                            x       y       z     vdW  Elec       q    Type
REMARK                         _______ _______ _______ _____ _____    ______ ____
ROOT
ATOM      1  C   UNL     1     -10.672  12.527  66.388  0.00  0.00    +0.044 A 
ATOM      2  C   UNL     1     -10.700  13.904  66.569  0.00  0.00    -0.002 A 
ATOM      3  C   UNL     1      -9.802  14.812  65.780  0.00  0.00    +0.032 C 
ATOM      4  C   UNL     1      -8.836  15.340  67.026  0.00  0.00    +0.033 C 
ATOM      5  C   UNL     1      -9.961  16.418  67.503  0.00  0.00    +0.054 C 
ATOM      6  C   UNL     1     -11.157  15.783  68.019  0.00  0.00    +0.197 C 
ATOM      7  O   UNL     1     -11.722  16.291  69.006  0.00  0.00    -0.287 OA
ATOM      8  C   UNL     1      -9.401  17.496  67.965  0.00  0.00    +0.207 C 
ATOM      9  O   UNL     1     -10.220  18.187  68.873  0.00  0.00    -0.289 OA
ATOM     10  C   UNL     1      -8.024  17.907  68.032  0.00  0.00    +0.237 C 
ATOM     11  C   UNL     1      -7.041  16.842  67.300  0.00  0.00    +0.065 C 
ATOM     12  C   UNL     1      -6.195  17.988  66.299  0.00  0.00    +0.124 C 
ATOM     13  C   UNL     1      -5.450  18.678  67.581  0.00  0.00    +0.195 C 
ATOM     14  C   UNL     1      -6.285  19.673  67.908  0.00  0.00    +0.130 C 
ATOM     15  O   UNL     1      -4.135  19.059  67.347  0.00  0.00    -0.290 OA
ATOM     16  O   UNL     1      -7.624  17.664  69.365  0.00  0.00    -0.210 OA
ATOM     17  C   UNL     1      -7.684  19.261  67.715  0.00  0.00    +0.215 C 
ATOM     18  O   UNL     1      -8.552  20.144  67.606  0.00  0.00    -0.288 OA
ATOM     19  C   UNL     1      -8.101  16.504  66.088  0.00  0.00    +0.010 C 
ATOM     20  C   UNL     1     -11.370  14.375  67.672  0.00  0.00    +0.075 A 
ATOM     21  C   UNL     1     -12.007  13.537  68.579  0.00  0.00    +0.199 A 
ATOM     22  O   UNL     1     -12.386  13.992  69.844  0.00  0.00    -0.286 OA
ATOM     23  C   UNL     1     -11.868  12.162  68.464  0.00  0.00    +0.043 A 
ATOM     24  C   UNL     1     -11.111  11.685  67.403  0.00  0.00    +0.017 A 
ENDROOT
BRANCH   1  26
ATOM     25  C   UNL     1     -10.468  11.797  64.069  0.00  0.00    +0.112 C 
ATOM     26  N   UNL     1      -9.864  11.937  65.384  0.00  0.00    -0.304 N 
ATOM     27  C   UNL     1      -8.729  11.123  65.735  0.00  0.00    +0.112 C 
ENDBRANCH   1  26
BRANCH  14  28
ATOM     28  C   UNL     1      -5.873  21.010  68.268  0.00  0.00    +0.290 C 
ATOM     29  O   UNL     1      -5.264  21.237  69.331  0.00  0.00    -0.266 OA
ATOM     30  N   UNL     1      -5.646  21.911  67.176  0.00  0.00    -0.084 NA
ENDBRANCH  14  28
BRANCH  12  31
ATOM     31  N   UNL     1      -5.023  16.943  66.063  0.00  0.00    -0.265 NA
ATOM     32  C   UNL     1      -4.147  17.522  65.100  0.00  0.00    +0.090 C 
ATOM     33  C   UNL     1      -4.472  16.645  67.334  0.00  0.00    +0.090 C 
ENDBRANCH  12  31
TORSDOF 3
ENDMDL
MODEL 2
REMARK VINA RESULT:      -7.2      4.946      9.517
REMARK  Name = 
REMARK  3 active torsions:
REMARK  status: ('A' for Active; 'I' for Inactive)
REMARK    1  A    between atoms: N_2  and  C_4
REMARK    2  A    between atoms: C_15  and  N_16
REMARK    3  A    between atoms: C_21  and  C_22
REMARK                            x       y       z     vdW  Elec       q    Type
REMARK                         _______ _______ _______ _____ _____    ______ ____
ROOT
ATOM      1  C   UNL     1     -12.117  15.067  69.829  0.00  0.00    +0.044 A 
ATOM      2  C   UNL     1     -12.142  13.909  69.064  0.00  0.00    -0.002 A 
ATOM      3  C   UNL     1     -12.479  12.580  69.674  0.00  0.00    +0.032 C 
ATOM      4  C   UNL     1     -10.991  11.854  69.513  0.00  0.00    +0.033 C 
ATOM      5  C   UNL     1     -11.275  11.514  67.945  0.00  0.00    +0.054 C 
ATOM      6  C   UNL     1     -11.355  12.704  67.122  0.00  0.00    +0.197 C 
ATOM      7  O   UNL     1     -10.853  12.674  65.982  0.00  0.00    -0.287 OA
ATOM      8  C   UNL     1     -10.729  10.382  67.611  0.00  0.00    +0.207 C 
ATOM      9  O   UNL     1     -10.444  10.300  66.238  0.00  0.00    -0.289 OA
ATOM     10  C   UNL     1     -10.032   9.390  68.385  0.00  0.00    +0.237 C 
ATOM     11  C   UNL     1     -10.040   9.748  69.969  0.00  0.00    +0.065 C 
ATOM     12  C   UNL     1     -10.613   8.204  70.532  0.00  0.00    +0.124 C 
ATOM     13  C   UNL     1      -9.225   7.447  70.115  0.00  0.00    +0.195 C 
ATOM     14  C   UNL     1      -9.482   7.020  68.873  0.00  0.00    +0.130 C 
ATOM     15  O   UNL     1      -8.813   6.465  71.007  0.00  0.00    -0.290 OA
ATOM     16  O   UNL     1      -8.661   9.615  68.136  0.00  0.00    -0.210 OA
ATOM     17  C   UNL     1     -10.298   8.004  68.144  0.00  0.00    +0.215 C 
ATOM     18  O   UNL     1     -10.933   7.625  67.145  0.00  0.00    -0.288 OA
ATOM     19  C   UNL     1     -11.568  10.356  69.955  0.00  0.00    +0.010 C 
ATOM     20  C   UNL     1     -11.588  13.978  67.809  0.00  0.00    +0.075 A 
ATOM     21  C   UNL     1     -11.028  15.142  67.297  0.00  0.00    +0.199 A 
ATOM     22  O   UNL     1     -10.189  15.113  66.181  0.00  0.00    -0.286 OA
ATOM     23  C   UNL     1     -10.891  16.257  68.110  0.00  0.00    +0.043 A 
ATOM     24  C   UNL     1     -11.365  16.158  69.411  0.00  0.00    +0.017 A 
ENDROOT
BRANCH   1  26
ATOM     25  C   UNL     1     -13.913  15.273  71.468  0.00  0.00    +0.112 C 
ATOM     26  N   UNL     1     -12.501  15.052  71.193  0.00  0.00    -0.304 N 
ATOM     27  C   UNL     1     -11.532  15.270  72.235  0.00  0.00    +0.112 C 
ENDBRANCH   1  26
BRANCH  14  28
ATOM     28  C   UNL     1      -9.130   5.717  68.358  0.00  0.00    +0.290 C 
ATOM     29  O   UNL     1      -9.947   4.775  68.362  0.00  0.00    -0.266 OA
ATOM     30  N   UNL     1      -8.109   5.695  67.352  0.00  0.00    -0.084 NA
ENDBRANCH  14  28
BRANCH  12  31
ATOM     31  N   UNL     1     -10.102   8.529  72.001  0.00  0.00    -0.265 NA
ATOM     32  C   UNL     1     -10.829   7.680  72.884  0.00  0.00    +0.090 C 
ATOM     33  C   UNL     1      -8.692   8.388  71.989  0.00  0.00    +0.090 C 
ENDBRANCH  12  31
TORSDOF 3
ENDMDL
MODEL 3
REMARK VINA RESULT:      -7.0      1.489      1.928
REMARK  Name = 
REMARK  3 active torsions:
REMARK  status: ('A' for Active; 'I' for Inactive)
REMARK    1  A    between atoms: N_2  and  C_4
REMARK    2  A    between atoms: C_15  and  N_16
REMARK    3  A    between atoms: C_21  and  C_22
REMARK                            x       y       z     vdW  Elec       q    Type
REMARK                         _______ _______ _______ _____ _____    ______ ____
ROOT
ATOM      1  C   UNL     1     -10.628  14.011  66.750  0.00  0.00    +0.044 A 
ATOM      2  C   UNL     1     -10.199  15.328  66.851  0.00  0.00    -0.002 A 
ATOM      3  C   UNL     1      -8.976  15.807  66.125  0.00  0.00    +0.032 C 
ATOM      4  C   UNL     1      -8.007  16.094  67.445  0.00  0.00    +0.033 C 
ATOM      5  C   UNL     1      -8.734  17.524  67.727  0.00  0.00    +0.054 C 
ATOM      6  C   UNL     1     -10.117  17.376  68.131  0.00  0.00    +0.197 C 
ATOM      7  O   UNL     1     -10.562  18.132  69.016  0.00  0.00    -0.287 OA
ATOM      8  C   UNL     1      -7.884  18.391  68.192  0.00  0.00    +0.207 C 
ATOM      9  O   UNL     1      -8.497  19.396  68.958  0.00  0.00    -0.289 OA
ATOM     10  C   UNL     1      -6.462  18.322  68.398  0.00  0.00    +0.237 C 
ATOM     11  C   UNL     1      -5.840  16.928  67.846  0.00  0.00    +0.065 C 
ATOM     12  C   UNL     1      -4.565  17.628  66.891  0.00  0.00    +0.124 C 
ATOM     13  C   UNL     1      -3.750  18.144  68.212  0.00  0.00    +0.195 C 
ATOM     14  C   UNL     1      -4.220  19.385  68.383  0.00  0.00    +0.130 C 
ATOM     15  O   UNL     1      -2.369  18.040  68.114  0.00  0.00    -0.290 OA
ATOM     16  O   UNL     1      -6.295  18.083  69.780  0.00  0.00    -0.210 OA
ATOM     17  C   UNL     1      -5.651  19.449  68.049  0.00  0.00    +0.215 C 
ATOM     18  O   UNL     1      -6.151  20.558  67.790  0.00  0.00    -0.288 OA
ATOM     19  C   UNL     1      -6.835  16.854  66.539  0.00  0.00    +0.010 C 
ATOM     20  C   UNL     1     -10.766  16.094  67.840  0.00  0.00    +0.075 A 
ATOM     21  C   UNL     1     -11.732  15.604  68.710  0.00  0.00    +0.199 A 
ATOM     22  O   UNL     1     -12.048  16.274  69.895  0.00  0.00    -0.286 OA
ATOM     23  C   UNL     1     -12.062  14.258  68.688  0.00  0.00    +0.043 A 
ATOM     24  C   UNL     1     -11.420  13.461  67.751  0.00  0.00    +0.017 A 
ENDROOT
BRANCH   1  26
ATOM     25  C   UNL     1     -10.563  12.940  64.558  0.00  0.00    +0.112 C 
ATOM     26  N   UNL     1      -9.981  13.095  65.883  0.00  0.00    -0.304 N 
ATOM     27  C   UNL     1      -9.121  12.065  66.405  0.00  0.00    +0.112 C 
ENDBRANCH   1  26
BRANCH  14  28
ATOM     28  C   UNL     1      -3.411  20.535  68.715  0.00  0.00    +0.290 C 
ATOM     29  O   UNL     1      -2.948  21.280  67.829  0.00  0.00    -0.266 OA
ATOM     30  N   UNL     1      -3.647  21.117  70.003  0.00  0.00    -0.084 NA
ENDBRANCH  14  28
BRANCH  12  31
ATOM     31  N   UNL     1      -3.804  16.234  66.852  0.00  0.00    -0.265 NA
ATOM     32  C   UNL     1      -2.723  16.383  65.936  0.00  0.00    +0.090 C 
ATOM     33  C   UNL     1      -3.470  15.908  68.190  0.00  0.00    +0.090 C 
ENDBRANCH  12  31
TORSDOF 3
ENDMDL
MODEL 4
REMARK VINA RESULT:      -6.9      4.746      7.610
REMARK  Name = 
REMARK  3 active torsions:
REMARK  status: ('A' for Active; 'I' for Inactive)
REMARK    1  A    between atoms: N_2  and  C_4
REMARK    2  A    between atoms: C_15  and  N_16
REMARK    3  A    between atoms: C_21  and  C_22
REMARK                            x       y       z     vdW  Elec       q    Type
REMARK                         _______ _______ _______ _____ _____    ______ ____
ROOT
ATOM      1  C   UNL     1      -9.286   7.353  70.625  0.00  0.00    +0.044 A 
ATOM      2  C   UNL     1      -9.123   8.062  69.442  0.00  0.00    -0.002 A 
ATOM      3  C   UNL     1      -8.712   9.505  69.449  0.00  0.00    +0.032 C 
ATOM      4  C   UNL     1     -10.123  10.163  68.866  0.00  0.00    +0.033 C 
ATOM      5  C   UNL     1      -9.727   9.774  67.334  0.00  0.00    +0.054 C 
ATOM      6  C   UNL     1      -9.700   8.343  67.112  0.00  0.00    +0.197 C 
ATOM      7  O   UNL     1     -10.135   7.901  66.032  0.00  0.00    -0.287 OA
ATOM      8  C   UNL     1     -10.158  10.675  66.502  0.00  0.00    +0.207 C 
ATOM      9  O   UNL     1     -10.360  10.167  65.208  0.00  0.00    -0.289 OA
ATOM     10  C   UNL     1     -10.812  11.939  66.714  0.00  0.00    +0.237 C 
ATOM     11  C   UNL     1     -10.921  12.304  68.292  0.00  0.00    +0.065 C 
ATOM     12  C   UNL     1     -10.254  13.908  68.184  0.00  0.00    +0.124 C 
ATOM     13  C   UNL     1     -11.550  14.479  67.366  0.00  0.00    +0.195 C 
ATOM     14  C   UNL     1     -11.190  14.310  66.088  0.00  0.00    +0.130 C 
ATOM     15  O   UNL     1     -11.927  15.770  67.712  0.00  0.00    -0.290 OA
ATOM     16  O   UNL     1     -12.182  11.698  66.469  0.00  0.00    -0.210 OA
ATOM     17  C   UNL     1     -10.420  13.067  65.925  0.00  0.00    +0.215 C 
ATOM     18  O   UNL     1      -9.702  12.943  64.918  0.00  0.00    -0.288 OA
ATOM     19  C   UNL     1      -9.450  11.674  68.670  0.00  0.00    +0.010 C 
ATOM     20  C   UNL     1      -9.611   7.483  68.296  0.00  0.00    +0.075 A 
ATOM     21  C   UNL     1     -10.237   6.242  68.288  0.00  0.00    +0.199 A 
ATOM     22  O   UNL     1     -11.008   5.826  67.200  0.00  0.00    -0.286 OA
ATOM     23  C   UNL     1     -10.510   5.599  69.485  0.00  0.00    +0.043 A 
ATOM     24  C   UNL     1     -10.101   6.229  70.653  0.00  0.00    +0.017 A 
ENDROOT
BRANCH   1  26
ATOM     25  C   UNL     1      -7.579   7.900  72.282  0.00  0.00    +0.112 C 
ATOM     26  N   UNL     1      -8.976   7.940  71.878  0.00  0.00    -0.304 N 
ATOM     27  C   UNL     1      -9.998   8.134  72.874  0.00  0.00    +0.112 C 
ENDBRANCH   1  26
BRANCH  14  28
ATOM     28  C   UNL     1     -11.405  15.277  65.036  0.00  0.00    +0.290 C 
ATOM     29  O   UNL     1     -10.513  16.081  64.701  0.00  0.00    -0.266 OA
ATOM     30  N   UNL     1     -12.369  14.914  64.038  0.00  0.00    -0.084 NA
ENDBRANCH  14  28
BRANCH  12  31
ATOM     31  N   UNL     1     -10.869  14.279  69.601  0.00  0.00    -0.265 NA
ATOM     32  C   UNL     1     -10.331  15.548  69.961  0.00  0.00    +0.090 C 
ATOM     33  C   UNL     1     -12.278  14.191  69.476  0.00  0.00    +0.090 C 
ENDBRANCH  12  31
TORSDOF 3
ENDMDL
MODEL 5
REMARK VINA RESULT:      -6.8      3.711      6.536
REMARK  Name = 
REMARK  3 active torsions:
REMARK  status: ('A' for Active; 'I' for Inactive)
REMARK    1  A    between atoms: N_2  and  C_4
REMARK    2  A    between atoms: C_15  and  N_16
REMARK    3  A    between atoms: C_21  and  C_22
REMARK                            x       y       z     vdW  Elec       q    Type
REMARK                         _______ _______ _______ _____ _____    ______ ____
ROOT
ATOM      1  C   UNL     1      -8.408   9.023  63.131  0.00  0.00    +0.044 A 
ATOM      2  C   UNL     1      -9.174   9.311  64.253  0.00  0.00    -0.002 A 
ATOM      3  C   UNL     1     -10.163  10.440  64.252  0.00  0.00    +0.032 C 
ATOM      4  C   UNL     1      -9.398  11.433  65.346  0.00  0.00    +0.033 C 
ATOM      5  C   UNL     1      -9.972  10.568  66.602  0.00  0.00    +0.054 C 
ATOM      6  C   UNL     1      -9.422   9.229  66.656  0.00  0.00    +0.197 C 
ATOM      7  O   UNL     1      -9.140   8.746  67.769  0.00  0.00    -0.287 OA
ATOM      8  C   UNL     1     -10.222  11.340  67.619  0.00  0.00    +0.207 C 
ATOM      9  O   UNL     1     -10.168  10.658  68.845  0.00  0.00    -0.289 OA
ATOM     10  C   UNL     1     -10.164  12.769  67.773  0.00  0.00    +0.237 C 
ATOM     11  C   UNL     1      -9.813  13.512  66.372  0.00  0.00    +0.065 C 
ATOM     12  C   UNL     1     -11.122  14.659  66.408  0.00  0.00    +0.124 C 
ATOM     13  C   UNL     1     -10.481  15.473  67.673  0.00  0.00    +0.195 C 
ATOM     14  C   UNL     1     -11.053  14.880  68.727  0.00  0.00    +0.130 C 
ATOM     15  O   UNL     1     -10.636  16.852  67.610  0.00  0.00    -0.290 OA
ATOM     16  O   UNL     1      -8.948  13.025  68.444  0.00  0.00    -0.210 OA
ATOM     17  C   UNL     1     -11.207  13.436  68.490  0.00  0.00    +0.215 C 
ATOM     18  O   UNL     1     -12.034  12.808  69.174  0.00  0.00    -0.288 OA
ATOM     19  C   UNL     1     -10.695  12.473  65.452  0.00  0.00    +0.010 C 
ATOM     20  C   UNL     1      -8.804   8.710  65.432  0.00  0.00    +0.075 A 
ATOM     21  C   UNL     1      -7.722   7.844  65.527  0.00  0.00    +0.199 A 
ATOM     22  O   UNL     1      -7.165   7.512  66.765  0.00  0.00    -0.286 OA
ATOM     23  C   UNL     1      -6.886   7.661  64.436  0.00  0.00    +0.043 A 
ATOM     24  C   UNL     1      -7.204   8.342  63.269  0.00  0.00    +0.017 A 
ENDROOT
BRANCH   1  26
ATOM     25  C   UNL     1      -9.300   9.008  60.860  0.00  0.00    +0.112 C 
ATOM     26  N   UNL     1      -8.600   9.725  61.914  0.00  0.00    -0.304 N 
ATOM     27  C   UNL     1      -7.776  10.856  61.577  0.00  0.00    +0.112 C 
ENDBRANCH   1  26
BRANCH  14  28
ATOM     28  C   UNL     1     -11.575  15.574  69.882  0.00  0.00    +0.290 C 
ATOM     29  O   UNL     1     -12.769  15.931  69.939  0.00  0.00    -0.266 OA
ATOM     30  N   UNL     1     -10.907  15.317  71.124  0.00  0.00    -0.084 NA
ENDBRANCH  14  28
BRANCH  12  31
ATOM     31  N   UNL     1     -10.382  15.564  65.332  0.00  0.00    -0.265 NA
ATOM     32  C   UNL     1     -11.396  16.290  64.642  0.00  0.00    +0.090 C 
ATOM     33  C   UNL     1      -9.410  16.323  66.028  0.00  0.00    +0.090 C 
ENDBRANCH  12  31
TORSDOF 3
ENDMDL
MODEL 6
REMARK VINA RESULT:      -6.8      2.263      7.403
REMARK  Name = 
REMARK  3 active torsions:
REMARK  status: ('A' for Active; 'I' for Inactive)
REMARK    1  A    between atoms: N_2  and  C_4
REMARK    2  A    between atoms: C_15  and  N_16
REMARK    3  A    between atoms: C_21  and  C_22
REMARK                            x       y       z     vdW  Elec       q    Type
REMARK                         _______ _______ _______ _____ _____    ______ ____
ROOT
ATOM      1  C   UNL     1      -4.690  19.221  68.787  0.00  0.00    +0.044 A 
ATOM      2  C   UNL     1      -5.982  18.762  69.006  0.00  0.00    -0.002 A 
ATOM      3  C   UNL     1      -6.245  17.341  69.410  0.00  0.00    +0.032 C 
ATOM      4  C   UNL     1      -7.018  16.835  68.027  0.00  0.00    +0.033 C 
ATOM      5  C   UNL     1      -8.418  17.518  68.503  0.00  0.00    +0.054 C 
ATOM      6  C   UNL     1      -8.346  18.964  68.548  0.00  0.00    +0.197 C 
ATOM      7  O   UNL     1      -9.335  19.621  68.170  0.00  0.00    -0.287 OA
ATOM      8  C   UNL     1      -9.435  16.809  68.110  0.00  0.00    +0.207 C 
ATOM      9  O   UNL     1     -10.608  17.569  67.977  0.00  0.00    -0.289 OA
ATOM     10  C   UNL     1      -9.515  15.539  67.441  0.00  0.00    +0.237 C 
ATOM     11  C   UNL     1      -8.050  14.865  67.250  0.00  0.00    +0.065 C 
ATOM     12  C   UNL     1      -8.445  13.305  67.914  0.00  0.00    +0.124 C 
ATOM     13  C   UNL     1      -9.424  12.930  66.658  0.00  0.00    +0.195 C 
ATOM     14  C   UNL     1     -10.623  13.347  67.083  0.00  0.00    +0.130 C 
ATOM     15  O   UNL     1      -9.365  11.602  66.258  0.00  0.00    -0.290 OA
ATOM     16  O   UNL     1      -9.772  15.844  66.086  0.00  0.00    -0.210 OA
ATOM     17  C   UNL     1     -10.494  14.586  67.867  0.00  0.00    +0.215 C 
ATOM     18  O   UNL     1     -11.419  14.900  68.636  0.00  0.00    -0.288 OA
ATOM     19  C   UNL     1      -7.480  15.385  68.702  0.00  0.00    +0.010 C 
ATOM     20  C   UNL     1      -7.010  19.567  68.580  0.00  0.00    +0.075 A 
ATOM     21  C   UNL     1      -6.799  20.793  67.962  0.00  0.00    +0.199 A 
ATOM     22  O   UNL     1      -7.817  21.431  67.249  0.00  0.00    -0.286 OA
ATOM     23  C   UNL     1      -5.511  21.187  67.631  0.00  0.00    +0.043 A 
ATOM     24  C   UNL     1      -4.475  20.330  67.976  0.00  0.00    +0.017 A 
ENDROOT
BRANCH   1  26
ATOM     25  C   UNL     1      -2.699  18.783  70.129  0.00  0.00    +0.112 C 
ATOM     26  N   UNL     1      -3.567  18.391  69.029  0.00  0.00    -0.304 N 
ATOM     27  C   UNL     1      -3.062  17.516  68.004  0.00  0.00    +0.112 C 
ENDBRANCH   1  26
BRANCH  14  28
ATOM     28  C   UNL     1     -11.858  12.615  66.918  0.00  0.00    +0.290 C 
ATOM     29  O   UNL     1     -12.437  12.562  65.815  0.00  0.00    -0.266 OA
ATOM     30  N   UNL     1     -12.063  11.520  67.820  0.00  0.00    -0.084 NA
ENDBRANCH  14  28
BRANCH  12  31
ATOM     31  N   UNL     1      -7.164  12.667  67.225  0.00  0.00    -0.265 NA
ATOM     32  C   UNL     1      -6.033  13.126  67.960  0.00  0.00    +0.090 C 
ATOM     33  C   UNL     1      -7.373  11.267  67.178  0.00  0.00    +0.090 C 
ENDBRANCH  12  31
TORSDOF 3
ENDMDL
MODEL 7
REMARK VINA RESULT:      -6.7      2.667      3.724
REMARK  Name = 
REMARK  3 active torsions:
REMARK  status: ('A' for Active; 'I' for Inactive)
REMARK    1  A    between atoms: N_2  and  C_4
REMARK    2  A    between atoms: C_15  and  N_16
REMARK    3  A    between atoms: C_21  and  C_22
REMARK                            x       y       z     vdW  Elec       q    Type
REMARK                         _______ _______ _______ _____ _____    ______ ____
ROOT
ATOM      1  C   UNL     1      -8.476   9.892  68.914  0.00  0.00    +0.044 A 
ATOM      2  C   UNL     1      -8.982  10.879  68.077  0.00  0.00    -0.002 A 
ATOM      3  C   UNL     1      -8.080  11.886  67.426  0.00  0.00    +0.032 C 
ATOM      4  C   UNL     1      -8.605  13.241  68.234  0.00  0.00    +0.033 C 
ATOM      5  C   UNL     1      -9.907  13.373  67.263  0.00  0.00    +0.054 C 
ATOM      6  C   UNL     1     -10.843  12.281  67.435  0.00  0.00    +0.197 C 
ATOM      7  O   UNL     1     -12.063  12.532  67.400  0.00  0.00    -0.287 OA
ATOM      8  C   UNL     1     -10.209  14.621  67.061  0.00  0.00    +0.207 C 
ATOM      9  O   UNL     1     -11.563  14.808  66.741  0.00  0.00    -0.289 OA
ATOM     10  C   UNL     1      -9.557  15.840  67.460  0.00  0.00    +0.237 C 
ATOM     11  C   UNL     1      -8.146  15.552  68.209  0.00  0.00    +0.065 C 
ATOM     12  C   UNL     1      -7.172  16.630  67.252  0.00  0.00    +0.124 C 
ATOM     13  C   UNL     1      -7.896  17.960  67.869  0.00  0.00    +0.195 C 
ATOM     14  C   UNL     1      -8.890  18.186  67.002  0.00  0.00    +0.130 C 
ATOM     15  O   UNL     1      -7.042  19.034  68.086  0.00  0.00    -0.290 OA
ATOM     16  O   UNL     1     -10.284  16.307  68.576  0.00  0.00    -0.210 OA
ATOM     17  C   UNL     1      -9.458  16.917  66.521  0.00  0.00    +0.215 C 
ATOM     18  O   UNL     1     -10.108  16.922  65.462  0.00  0.00    -0.288 OA
ATOM     19  C   UNL     1      -7.750  14.276  67.250  0.00  0.00    +0.010 C 
ATOM     20  C   UNL     1     -10.343  11.066  68.086  0.00  0.00    +0.075 A 
ATOM     21  C   UNL     1     -11.201  10.314  68.879  0.00  0.00    +0.199 A 
ATOM     22  O   UNL     1     -12.512  10.728  69.126  0.00  0.00    -0.286 OA
ATOM     23  C   UNL     1     -10.681   9.421  69.804  0.00  0.00    +0.043 A 
ATOM     24  C   UNL     1      -9.299   9.299  69.863  0.00  0.00    +0.017 A 
ENDROOT
BRANCH   1  26
ATOM     25  C   UNL     1      -6.445   8.644  68.394  0.00  0.00    +0.112 C 
ATOM     26  N   UNL     1      -7.080   9.742  69.107  0.00  0.00    -0.304 N 
ATOM     27  C   UNL     1      -6.428  10.314  70.256  0.00  0.00    +0.112 C 
ENDBRANCH   1  26
BRANCH  14  28
ATOM     28  C   UNL     1      -9.266  19.487  66.498  0.00  0.00    +0.290 C 
ATOM     29  O   UNL     1      -8.792  19.932  65.434  0.00  0.00    -0.266 OA
ATOM     30  N   UNL     1     -10.562  19.960  66.887  0.00  0.00    -0.084 NA
ENDBRANCH  14  28
BRANCH  12  31
ATOM     31  N   UNL     1      -6.036  16.620  68.362  0.00  0.00    -0.265 NA
ATOM     32  C   UNL     1      -4.826  17.000  67.713  0.00  0.00    +0.090 C 
ATOM     33  C   UNL     1      -6.484  17.449  69.420  0.00  0.00    +0.090 C 
ENDBRANCH  12  31
TORSDOF 3
ENDMDL
MODEL 8
REMARK VINA RESULT:      -6.7      2.805      7.877
REMARK  Name = 
REMARK  3 active torsions:
REMARK  status: ('A' for Active; 'I' for Inactive)
REMARK    1  A    between atoms: N_2  and  C_4
REMARK    2  A    between atoms: C_15  and  N_16
REMARK    3  A    between atoms: C_21  and  C_22
REMARK                            x       y       z     vdW  Elec       q    Type
REMARK                         _______ _______ _______ _____ _____    ______ ____
ROOT
ATOM      1  C   UNL     1      -6.514  19.183  68.135  0.00  0.00    +0.044 A 
ATOM      2  C   UNL     1      -6.321  17.841  67.833  0.00  0.00    -0.002 A 
ATOM      3  C   UNL     1      -7.025  17.193  66.678  0.00  0.00    +0.032 C 
ATOM      4  C   UNL     1      -8.010  16.167  67.539  0.00  0.00    +0.033 C 
ATOM      5  C   UNL     1      -6.796  15.102  67.750  0.00  0.00    +0.054 C 
ATOM      6  C   UNL     1      -5.738  15.622  68.593  0.00  0.00    +0.197 C 
ATOM      7  O   UNL     1      -5.193  14.852  69.406  0.00  0.00    -0.287 OA
ATOM      8  C   UNL     1      -7.244  13.882  67.742  0.00  0.00    +0.207 C 
ATOM      9  O   UNL     1      -6.418  12.994  68.449  0.00  0.00    -0.289 OA
ATOM     10  C   UNL     1      -8.556  13.346  67.496  0.00  0.00    +0.237 C 
ATOM     11  C   UNL     1      -9.608  14.503  67.061  0.00  0.00    +0.065 C 
ATOM     12  C   UNL     1     -10.214  13.714  65.633  0.00  0.00    +0.124 C 
ATOM     13  C   UNL     1     -10.962  12.545  66.499  0.00  0.00    +0.195 C 
ATOM     14  C   UNL     1     -10.034  11.583  66.562  0.00  0.00    +0.130 C 
ATOM     15  O   UNL     1     -12.193  12.150  65.991  0.00  0.00    -0.290 OA
ATOM     16  O   UNL     1      -9.090  13.060  68.772  0.00  0.00    -0.210 OA
ATOM     17  C   UNL     1      -8.690  12.167  66.694  0.00  0.00    +0.215 C 
ATOM     18  O   UNL     1      -7.707  11.467  66.394  0.00  0.00    -0.288 OA
ATOM     19  C   UNL     1      -8.509  15.349  66.177  0.00  0.00    +0.010 C 
ATOM     20  C   UNL     1      -5.685  17.075  68.780  0.00  0.00    +0.075 A 
ATOM     21  C   UNL     1      -5.239  17.592  69.990  0.00  0.00    +0.199 A 
ATOM     22  O   UNL     1      -4.905  16.755  71.057  0.00  0.00    -0.286 OA
ATOM     23  C   UNL     1      -5.547  18.898  70.338  0.00  0.00    +0.043 A 
ATOM     24  C   UNL     1      -6.272  19.647  69.422  0.00  0.00    +0.017 A 
ENDROOT
BRANCH   1  26
ATOM     25  C   UNL     1      -6.596  20.976  66.481  0.00  0.00    +0.112 C 
ATOM     26  N   UNL     1      -7.310  20.012  67.305  0.00  0.00    -0.304 N 
ATOM     27  C   UNL     1      -8.706  20.217  67.588  0.00  0.00    +0.112 C 
ENDBRANCH   1  26
BRANCH  14  28
ATOM     28  C   UNL     1     -10.294  10.173  66.388  0.00  0.00    +0.290 C 
ATOM     29  O   UNL     1     -10.064   9.601  65.304  0.00  0.00    -0.266 OA
ATOM     30  N   UNL     1     -10.239   9.374  67.577  0.00  0.00    -0.084 NA
ENDBRANCH  14  28
BRANCH  12  31
ATOM     31  N   UNL     1     -11.491  14.658  65.630  0.00  0.00    -0.265 NA
ATOM     32  C   UNL     1     -12.119  14.492  64.361  0.00  0.00    +0.090 C 
ATOM     33  C   UNL     1     -12.257  14.322  66.773  0.00  0.00    +0.090 C 
ENDBRANCH  12  31
TORSDOF 3
ENDMDL
MODEL 9
REMARK VINA RESULT:      -6.5      2.713      3.752
REMARK  Name = 
REMARK  3 active torsions:
REMARK  status: ('A' for Active; 'I' for Inactive)
REMARK    1  A    between atoms: N_2  and  C_4
REMARK    2  A    between atoms: C_15  and  N_16
REMARK    3  A    between atoms: C_21  and  C_22
REMARK                            x       y       z     vdW  Elec       q    Type
REMARK                         _______ _______ _______ _____ _____    ______ ____
ROOT
ATOM      1  C   UNL     1      -9.628  13.000  66.912  0.00  0.00    +0.044 A 
ATOM      2  C   UNL     1      -8.933  13.662  67.915  0.00  0.00    -0.002 A 
ATOM      3  C   UNL     1      -9.298  15.059  68.325  0.00  0.00    +0.032 C 
ATOM      4  C   UNL     1      -7.931  15.836  67.786  0.00  0.00    +0.033 C 
ATOM      5  C   UNL     1      -7.093  15.375  69.105  0.00  0.00    +0.054 C 
ATOM      6  C   UNL     1      -6.879  13.944  69.158  0.00  0.00    +0.197 C 
ATOM      7  O   UNL     1      -5.781  13.521  69.567  0.00  0.00    -0.287 OA
ATOM      8  C   UNL     1      -6.243  16.294  69.457  0.00  0.00    +0.207 C 
ATOM      9  O   UNL     1      -5.152  15.779  70.176  0.00  0.00    -0.289 OA
ATOM     10  C   UNL     1      -6.003  17.620  68.953  0.00  0.00    +0.237 C 
ATOM     11  C   UNL     1      -7.073  18.030  67.803  0.00  0.00    +0.065 C 
ATOM     12  C   UNL     1      -7.544  19.560  68.488  0.00  0.00    +0.124 C 
ATOM     13  C   UNL     1      -6.084  20.234  68.189  0.00  0.00    +0.195 C 
ATOM     14  C   UNL     1      -5.412  20.002  69.323  0.00  0.00    +0.130 C 
ATOM     15  O   UNL     1      -6.133  21.563  67.789  0.00  0.00    -0.290 OA
ATOM     16  O   UNL     1      -4.860  17.507  68.131  0.00  0.00    -0.210 OA
ATOM     17  C   UNL     1      -5.770  18.687  69.879  0.00  0.00    +0.215 C 
ATOM     18  O   UNL     1      -5.545  18.470  71.081  0.00  0.00    -0.288 OA
ATOM     19  C   UNL     1      -8.337  17.270  68.529  0.00  0.00    +0.010 C 
ATOM     20  C   UNL     1      -7.744  13.107  68.321  0.00  0.00    +0.075 A 
ATOM     21  C   UNL     1      -7.238  11.932  67.777  0.00  0.00    +0.199 A 
ATOM     22  O   UNL     1      -5.901  11.568  67.954  0.00  0.00    -0.286 OA
ATOM     23  C   UNL     1      -7.871  11.346  66.691  0.00  0.00    +0.043 A 
ATOM     24  C   UNL     1      -9.022  11.960  66.218  0.00  0.00    +0.017 A 
ENDROOT
BRANCH   1  26
ATOM     25  C   UNL     1     -12.063  13.120  66.786  0.00  0.00    +0.112 C 
ATOM     26  N   UNL     1     -10.769  13.582  66.306  0.00  0.00    -0.304 N 
ATOM     27  C   UNL     1     -10.677  14.217  65.017  0.00  0.00    +0.112 C 
ENDBRANCH   1  26
BRANCH  14  28
ATOM     28  C   UNL     1      -4.560  20.960  69.988  0.00  0.00    +0.290 C 
ATOM     29  O   UNL     1      -4.937  21.563  71.012  0.00  0.00    -0.266 OA
ATOM     30  N   UNL     1      -3.149  20.765  69.824  0.00  0.00    -0.084 NA
ENDBRANCH  14  28
BRANCH  12  31
ATOM     31  N   UNL     1      -8.145  20.020  67.092  0.00  0.00    -0.265 NA
ATOM     32  C   UNL     1      -7.628  19.127  66.110  0.00  0.00    +0.090 C 
ATOM     33  C   UNL     1      -9.554  20.063  67.242  0.00  0.00    +0.090 C 
ENDBRANCH  12  31
TORSDOF 3
ENDMDL
