MODEL 1
REMARK VINA RESULT:      -6.2      0.000      0.000
REMARK  Name = 
REMARK  10 active torsions:
REMARK  status: ('A' for Active; 'I' for Inactive)
REMARK    1  A    between atoms: C_2  and  C_3
REMARK    2  A    between atoms: C_3  and  C_4
REMARK    3  A    between atoms: N_6  and  C_7
REMARK    4  A    between atoms: C_10  and  O_11
REMARK    5  A    between atoms: O_11  and  C_12
REMARK    6  A    between atoms: C_12  and  C_13
REMARK    7  A    between atoms: C_13  and  C_15
REMARK    8  A    between atoms: C_15  and  N_16
REMARK    9  A    between atoms: N_16  and  C_17
REMARK   10  A    between atoms: C_20  and  C_21
REMARK                            x       y       z     vdW  Elec       q    Type
REMARK                         _______ _______ _______ _____ _____    ______ ____
ROOT
ATOM      1  C   UNL     1     -12.489  10.667  71.157  0.00  0.00    +0.074 A 
ATOM      2  C   UNL     1     -13.173  11.610  71.910  0.00  0.00    +0.022 A 
ATOM      3  C   UNL     1     -13.044  12.971  71.652  0.00  0.00    +0.070 A 
ATOM      4  C   UNL     1     -12.287  13.425  70.577  0.00  0.00    +0.141 A 
ATOM      5  C   UNL     1     -11.952  12.446  69.647  0.00  0.00    +0.038 A 
ATOM      6  C   UNL     1     -11.883  11.103  69.984  0.00  0.00    +0.020 A 
ENDROOT
BRANCH   3   7
ATOM      7  C   UNL     1     -13.821  13.972  72.394  0.00  0.00    +0.176 C 
ATOM      8  O   UNL     1     -13.198  14.533  73.345  0.00  0.00    -0.291 OA
ATOM      9  C   UNL     1     -14.637  14.895  71.544  0.00  0.00    +0.077 C 
ENDBRANCH   3   7
BRANCH   1  11
ATOM     10  C   UNL     1     -12.947   8.308  71.606  0.00  0.00    +0.246 C 
ATOM     11  N   UNL     1     -12.097   9.434  71.742  0.00  0.00    -0.179 NA
ATOM     12  O   UNL     1     -14.145   8.454  71.261  0.00  0.00    -0.273 OA
BRANCH  10  13
ATOM     13  C   UNL     1     -12.416   6.918  71.717  0.00  0.00    +0.087 C 
BRANCH  13  15
ATOM     14  C   UNL     1     -11.273   6.178  70.284  0.00  0.00    +0.001 C 
ATOM     15  C   UNL     1     -11.756   6.560  70.393  0.00  0.00    +0.010 C 
ENDBRANCH  13  15
ENDBRANCH  10  13
ENDBRANCH   1  11
BRANCH   4  16
ATOM     16  O   UNL     1     -11.535  14.569  70.772  0.00  0.00    -0.473 OA
BRANCH  16  17
ATOM     17  C   UNL     1     -10.690  15.169  69.841  0.00  0.00    +0.240 C 
BRANCH  17  18
ATOM     18  C   UNL     1     -11.727  16.000  68.809  0.00  0.00    +0.213 C 
ATOM     19  O   UNL     1     -10.781  17.226  68.790  0.00  0.00    -0.218 OA
BRANCH  18  20
ATOM     20  C   UNL     1     -10.974  15.359  67.446  0.00  0.00    +0.125 C 
BRANCH  20  21
ATOM     21  N   UNL     1     -12.080  14.537  66.956  0.00  0.00    -0.217 NA
BRANCH  21  22
ATOM     22  C   UNL     1     -11.501  13.540  66.090  0.00  0.00    +0.073 C 
ATOM     23  C   UNL     1     -10.248  14.016  65.407  0.00  0.00    +0.019 C 
ATOM     24  C   UNL     1     -12.486  12.905  65.153  0.00  0.00    +0.019 C 
ENDBRANCH  21  22
ENDBRANCH  20  21
ENDBRANCH  18  20
ENDBRANCH  17  18
ENDBRANCH  16  17
ENDBRANCH   4  16
TORSDOF 10
ENDMDL
MODEL 2
REMARK VINA RESULT:      -6.2      4.357      6.704
REMARK  Name = 
REMARK  10 active torsions:
REMARK  status: ('A' for Active; 'I' for Inactive)
REMARK    1  A    between atoms: C_2  and  C_3
REMARK    2  A    between atoms: C_3  and  C_4
REMARK    3  A    between atoms: N_6  and  C_7
REMARK    4  A    between atoms: C_10  and  O_11
REMARK    5  A    between atoms: O_11  and  C_12
REMARK    6  A    between atoms: C_12  and  C_13
REMARK    7  A    between atoms: C_13  and  C_15
REMARK    8  A    between atoms: C_15  and  N_16
REMARK    9  A    between atoms: N_16  and  C_17
REMARK   10  A    between atoms: C_20  and  C_21
REMARK                            x       y       z     vdW  Elec       q    Type
REMARK                         _______ _______ _______ _____ _____    ______ ____
ROOT
ATOM      1  C   UNL     1     -11.425  15.496  69.350  0.00  0.00    +0.074 A 
ATOM      2  C   UNL     1     -11.683  15.361  67.994  0.00  0.00    +0.022 A 
ATOM      3  C   UNL     1     -10.680  15.544  67.047  0.00  0.00    +0.070 A 
ATOM      4  C   UNL     1      -9.368  15.791  67.436  0.00  0.00    +0.141 A 
ATOM      5  C   UNL     1      -9.101  15.534  68.777  0.00  0.00    +0.038 A 
ATOM      6  C   UNL     1     -10.094  15.562  69.744  0.00  0.00    +0.020 A 
ENDROOT
BRANCH   3   7
ATOM      7  C   UNL     1     -10.925  15.330  65.615  0.00  0.00    +0.176 C 
ATOM      8  O   UNL     1     -10.837  16.371  64.897  0.00  0.00    -0.291 OA
ATOM      9  C   UNL     1     -10.275  14.111  65.039  0.00  0.00    +0.077 C 
ENDBRANCH   3   7
BRANCH   1  11
ATOM     10  C   UNL     1     -12.971  15.029  71.185  0.00  0.00    +0.246 C 
ATOM     11  N   UNL     1     -12.448  15.937  70.230  0.00  0.00    -0.179 NA
ATOM     12  O   UNL     1     -12.776  13.795  71.063  0.00  0.00    -0.273 OA
BRANCH  10  13
ATOM     13  C   UNL     1     -13.631  15.512  72.433  0.00  0.00    +0.087 C 
BRANCH  13  15
ATOM     14  C   UNL     1     -12.437  15.413  74.006  0.00  0.00    +0.001 C 
ATOM     15  C   UNL     1     -12.550  15.735  73.481  0.00  0.00    +0.010 C 
ENDBRANCH  13  15
ENDBRANCH  10  13
ENDBRANCH   1  11
BRANCH   4  16
ATOM     16  O   UNL     1      -8.645  16.698  66.683  0.00  0.00    -0.473 OA
BRANCH  16  17
ATOM     17  C   UNL     1      -7.264  16.703  66.500  0.00  0.00    +0.240 C 
BRANCH  17  18
ATOM     18  C   UNL     1      -6.770  18.201  67.086  0.00  0.00    +0.213 C 
ATOM     19  O   UNL     1      -5.750  18.355  65.931  0.00  0.00    -0.218 OA
BRANCH  18  20
ATOM     20  C   UNL     1      -7.950  19.003  66.192  0.00  0.00    +0.125 C 
BRANCH  20  21
ATOM     21  N   UNL     1      -8.188  20.122  67.104  0.00  0.00    -0.217 NA
BRANCH  21  22
ATOM     22  C   UNL     1      -9.580  20.062  67.475  0.00  0.00    +0.073 C 
ATOM     23  C   UNL     1      -9.813  19.299  68.750  0.00  0.00    +0.019 C 
ATOM     24  C   UNL     1     -10.488  19.645  66.355  0.00  0.00    +0.019 C 
ENDBRANCH  21  22
ENDBRANCH  20  21
ENDBRANCH  18  20
ENDBRANCH  17  18
ENDBRANCH  16  17
ENDBRANCH   4  16
TORSDOF 10
ENDMDL
MODEL 3
REMARK VINA RESULT:      -6.2      1.720      2.464
REMARK  Name = 
REMARK  10 active torsions:
REMARK  status: ('A' for Active; 'I' for Inactive)
REMARK    1  A    between atoms: C_2  and  C_3
REMARK    2  A    between atoms: C_3  and  C_4
REMARK    3  A    between atoms: N_6  and  C_7
REMARK    4  A    between atoms: C_10  and  O_11
REMARK    5  A    between atoms: O_11  and  C_12
REMARK    6  A    between atoms: C_12  and  C_13
REMARK    7  A    between atoms: C_13  and  C_15
REMARK    8  A    between atoms: C_15  and  N_16
REMARK    9  A    between atoms: N_16  and  C_17
REMARK   10  A    between atoms: C_20  and  C_21
REMARK                            x       y       z     vdW  Elec       q    Type
REMARK                         _______ _______ _______ _____ _____    ______ ____
ROOT
ATOM      1  C   UNL     1     -12.524  10.884  71.127  0.00  0.00    +0.074 A 
ATOM      2  C   UNL     1     -13.170  11.843  71.893  0.00  0.00    +0.022 A 
ATOM      3  C   UNL     1     -13.013  13.200  71.631  0.00  0.00    +0.070 A 
ATOM      4  C   UNL     1     -12.266  13.635  70.542  0.00  0.00    +0.141 A 
ATOM      5  C   UNL     1     -11.974  12.649  69.607  0.00  0.00    +0.038 A 
ATOM      6  C   UNL     1     -11.931  11.304  69.943  0.00  0.00    +0.020 A 
ENDROOT
BRANCH   3   7
ATOM      7  C   UNL     1     -13.751  14.220  72.388  0.00  0.00    +0.176 C 
ATOM      8  O   UNL     1     -13.073  14.820  73.276  0.00  0.00    -0.291 OA
ATOM      9  C   UNL     1     -14.631  15.106  71.562  0.00  0.00    +0.077 C 
ENDBRANCH   3   7
BRANCH   1  11
ATOM     10  C   UNL     1     -13.036   8.540  71.597  0.00  0.00    +0.246 C 
ATOM     11  N   UNL     1     -12.150   9.642  71.706  0.00  0.00    -0.179 NA
ATOM     12  O   UNL     1     -14.239   8.719  71.286  0.00  0.00    -0.273 OA
BRANCH  10  13
ATOM     13  C   UNL     1     -12.541   7.136  71.699  0.00  0.00    +0.087 C 
BRANCH  13  15
ATOM     14  C   UNL     1     -11.562   6.444  70.127  0.00  0.00    +0.001 C 
ATOM     15  C   UNL     1     -11.563   6.898  70.557  0.00  0.00    +0.010 C 
ENDBRANCH  13  15
ENDBRANCH  10  13
ENDBRANCH   1  11
BRANCH   4  16
ATOM     16  O   UNL     1     -11.483  14.762  70.721  0.00  0.00    -0.473 OA
BRANCH  16  17
ATOM     17  C   UNL     1     -11.335  15.815  69.821  0.00  0.00    +0.240 C 
BRANCH  17  18
ATOM     18  C   UNL     1      -9.943  15.432  68.956  0.00  0.00    +0.213 C 
ATOM     19  O   UNL     1     -10.742  15.374  67.631  0.00  0.00    -0.218 OA
BRANCH  18  20
ATOM     20  C   UNL     1      -9.586  17.058  68.705  0.00  0.00    +0.125 C 
BRANCH  20  21
ATOM     21  N   UNL     1     -10.867  17.474  68.135  0.00  0.00    -0.217 NA
BRANCH  21  22
ATOM     22  C   UNL     1     -10.670  18.799  67.600  0.00  0.00    +0.073 C 
ATOM     23  C   UNL     1     -10.386  18.797  66.124  0.00  0.00    +0.019 C 
ATOM     24  C   UNL     1      -9.707  19.635  68.392  0.00  0.00    +0.019 C 
ENDBRANCH  21  22
ENDBRANCH  20  21
ENDBRANCH  18  20
ENDBRANCH  17  18
ENDBRANCH  16  17
ENDBRANCH   4  16
TORSDOF 10
ENDMDL
MODEL 4
REMARK VINA RESULT:      -6.1      3.461      6.371
REMARK  Name = 
REMARK  10 active torsions:
REMARK  status: ('A' for Active; 'I' for Inactive)
REMARK    1  A    between atoms: C_2  and  C_3
REMARK    2  A    between atoms: C_3  and  C_4
REMARK    3  A    between atoms: N_6  and  C_7
REMARK    4  A    between atoms: C_10  and  O_11
REMARK    5  A    between atoms: O_11  and  C_12
REMARK    6  A    between atoms: C_12  and  C_13
REMARK    7  A    between atoms: C_13  and  C_15
REMARK    8  A    between atoms: C_15  and  N_16
REMARK    9  A    between atoms: N_16  and  C_17
REMARK   10  A    between atoms: C_20  and  C_21
REMARK                            x       y       z     vdW  Elec       q    Type
REMARK                         _______ _______ _______ _____ _____    ______ ____
ROOT
ATOM      1  C   UNL     1     -11.853  14.084  69.520  0.00  0.00    +0.074 A 
ATOM      2  C   UNL     1     -11.891  14.408  68.172  0.00  0.00    +0.022 A 
ATOM      3  C   UNL     1     -11.703  13.440  67.191  0.00  0.00    +0.070 A 
ATOM      4  C   UNL     1     -11.550  12.100  67.531  0.00  0.00    +0.141 A 
ATOM      5  C   UNL     1     -11.903  11.789  68.840  0.00  0.00    +0.038 A 
ATOM      6  C   UNL     1     -11.881  12.735  69.853  0.00  0.00    +0.020 A 
ENDROOT
BRANCH   3   7
ATOM      7  C   UNL     1     -11.816  13.760  65.762  0.00  0.00    +0.176 C 
ATOM      8  O   UNL     1     -12.988  13.673  65.286  0.00  0.00    -0.291 OA
ATOM      9  C   UNL     1     -11.045  14.965  65.322  0.00  0.00    +0.077 C 
ENDBRANCH   3   7
BRANCH   1  11
ATOM     10  C   UNL     1     -12.374  15.679  71.297  0.00  0.00    +0.246 C 
ATOM     11  N   UNL     1     -11.414  15.041  70.472  0.00  0.00    -0.179 NA
ATOM     12  O   UNL     1     -13.593  15.647  70.997  0.00  0.00    -0.273 OA
BRANCH  10  13
ATOM     13  C   UNL     1     -11.993  16.271  72.613  0.00  0.00    +0.087 C 
BRANCH  13  15
ATOM     14  C   UNL     1     -12.501  15.433  74.330  0.00  0.00    +0.001 C 
ATOM     15  C   UNL     1     -12.576  15.392  73.711  0.00  0.00    +0.010 C 
ENDBRANCH  13  15
ENDBRANCH  10  13
ENDBRANCH   1  11
BRANCH   4  16
ATOM     16  O   UNL     1     -10.638  11.362  66.799  0.00  0.00    -0.473 OA
BRANCH  16  17
ATOM     17  C   UNL     1      -9.347  11.020  67.195  0.00  0.00    +0.240 C 
BRANCH  17  18
ATOM     18  C   UNL     1      -9.073   9.523  66.477  0.00  0.00    +0.213 C 
ATOM     19  O   UNL     1     -10.315   8.921  67.178  0.00  0.00    -0.218 OA
BRANCH  18  20
ATOM     20  C   UNL     1      -9.995   9.938  65.130  0.00  0.00    +0.125 C 
BRANCH  20  21
ATOM     21  N   UNL     1      -8.907  10.098  64.165  0.00  0.00    -0.217 NA
BRANCH  21  22
ATOM     22  C   UNL     1      -9.507  10.564  62.940  0.00  0.00    +0.073 C 
ATOM     23  C   UNL     1      -8.504  10.773  61.840  0.00  0.00    +0.019 C 
ATOM     24  C   UNL     1     -10.440  11.726  63.127  0.00  0.00    +0.019 C 
ENDBRANCH  21  22
ENDBRANCH  20  21
ENDBRANCH  18  20
ENDBRANCH  17  18
ENDBRANCH  16  17
ENDBRANCH   4  16
TORSDOF 10
ENDMDL
MODEL 5
REMARK VINA RESULT:      -6.0      3.117      5.865
REMARK  Name = 
REMARK  10 active torsions:
REMARK  status: ('A' for Active; 'I' for Inactive)
REMARK    1  A    between atoms: C_2  and  C_3
REMARK    2  A    between atoms: C_3  and  C_4
REMARK    3  A    between atoms: N_6  and  C_7
REMARK    4  A    between atoms: C_10  and  O_11
REMARK    5  A    between atoms: O_11  and  C_12
REMARK    6  A    between atoms: C_12  and  C_13
REMARK    7  A    between atoms: C_13  and  C_15
REMARK    8  A    between atoms: C_15  and  N_16
REMARK    9  A    between atoms: N_16  and  C_17
REMARK   10  A    between atoms: C_20  and  C_21
REMARK                            x       y       z     vdW  Elec       q    Type
REMARK                         _______ _______ _______ _____ _____    ______ ____
ROOT
ATOM      1  C   UNL     1     -11.478  15.342  69.921  0.00  0.00    +0.074 A 
ATOM      2  C   UNL     1     -11.380  13.960  69.981  0.00  0.00    +0.022 A 
ATOM      3  C   UNL     1     -11.359  13.188  68.824  0.00  0.00    +0.070 A 
ATOM      4  C   UNL     1     -11.355  13.784  67.568  0.00  0.00    +0.141 A 
ATOM      5  C   UNL     1     -11.066  15.144  67.571  0.00  0.00    +0.038 A 
ATOM      6  C   UNL     1     -11.293  15.943  68.681  0.00  0.00    +0.020 A 
ENDROOT
BRANCH   3   7
ATOM      7  C   UNL     1     -11.181  11.730  68.874  0.00  0.00    +0.176 C 
ATOM      8  O   UNL     1      -9.980  11.336  68.771  0.00  0.00    -0.291 OA
ATOM      9  C   UNL     1     -11.986  11.032  69.926  0.00  0.00    +0.077 C 
ENDBRANCH   3   7
BRANCH   1  11
ATOM     10  C   UNL     1     -13.251  15.490  71.596  0.00  0.00    +0.246 C 
ATOM     11  N   UNL     1     -12.115  16.059  70.968  0.00  0.00    -0.179 NA
ATOM     12  O   UNL     1     -13.872  14.543  71.053  0.00  0.00    -0.273 OA
BRANCH  10  13
ATOM     13  C   UNL     1     -13.654  15.888  72.977  0.00  0.00    +0.087 C 
BRANCH  13  15
ATOM     14  C   UNL     1     -12.439  15.601  74.510  0.00  0.00    +0.001 C 
ATOM     15  C   UNL     1     -12.584  15.390  73.940  0.00  0.00    +0.010 C 
ENDBRANCH  13  15
ENDBRANCH  10  13
ENDBRANCH   1  11
BRANCH   4  16
ATOM     16  O   UNL     1     -12.101  13.173  66.575  0.00  0.00    -0.473 OA
BRANCH  16  17
ATOM     17  C   UNL     1     -12.608  13.783  65.431  0.00  0.00    +0.240 C 
BRANCH  17  18
ATOM     18  C   UNL     1     -12.459  12.613  64.232  0.00  0.00    +0.213 C 
ATOM     19  O   UNL     1     -12.605  13.683  63.122  0.00  0.00    -0.218 OA
BRANCH  18  20
ATOM     20  C   UNL     1     -10.783  12.772  64.207  0.00  0.00    +0.125 C 
BRANCH  20  21
ATOM     21  N   UNL     1     -10.482  11.730  63.226  0.00  0.00    -0.217 NA
BRANCH  21  22
ATOM     22  C   UNL     1      -9.414  10.937  63.781  0.00  0.00    +0.073 C 
ATOM     23  C   UNL     1      -9.207   9.640  63.049  0.00  0.00    +0.019 C 
ATOM     24  C   UNL     1      -9.491  10.775  65.271  0.00  0.00    +0.019 C 
ENDBRANCH  21  22
ENDBRANCH  20  21
ENDBRANCH  18  20
ENDBRANCH  17  18
ENDBRANCH  16  17
ENDBRANCH   4  16
TORSDOF 10
ENDMDL
MODEL 6
REMARK VINA RESULT:      -5.9      1.813      6.649
REMARK  Name = 
REMARK  10 active torsions:
REMARK  status: ('A' for Active; 'I' for Inactive)
REMARK    1  A    between atoms: C_2  and  C_3
REMARK    2  A    between atoms: C_3  and  C_4
REMARK    3  A    between atoms: N_6  and  C_7
REMARK    4  A    between atoms: C_10  and  O_11
REMARK    5  A    between atoms: O_11  and  C_12
REMARK    6  A    between atoms: C_12  and  C_13
REMARK    7  A    between atoms: C_13  and  C_15
REMARK    8  A    between atoms: C_15  and  N_16
REMARK    9  A    between atoms: N_16  and  C_17
REMARK   10  A    between atoms: C_20  and  C_21
REMARK                            x       y       z     vdW  Elec       q    Type
REMARK                         _______ _______ _______ _____ _____    ______ ____
ROOT
ATOM      1  C   UNL     1     -11.848  13.178  67.910  0.00  0.00    +0.074 A 
ATOM      2  C   UNL     1     -12.128  13.892  69.065  0.00  0.00    +0.022 A 
ATOM      3  C   UNL     1     -12.263  13.254  70.293  0.00  0.00    +0.070 A 
ATOM      4  C   UNL     1     -12.041  11.887  70.415  0.00  0.00    +0.141 A 
ATOM      5  C   UNL     1     -11.397  11.303  69.329  0.00  0.00    +0.038 A 
ATOM      6  C   UNL     1     -11.452  11.854  68.058  0.00  0.00    +0.020 A 
ENDROOT
BRANCH   3   7
ATOM      7  C   UNL     1     -12.485  14.010  71.533  0.00  0.00    +0.176 C 
ATOM      8  O   UNL     1     -11.602  14.882  71.792  0.00  0.00    -0.291 OA
ATOM      9  C   UNL     1     -13.896  14.457  71.756  0.00  0.00    +0.077 C 
ENDBRANCH   3   7
BRANCH   1  11
ATOM     10  C   UNL     1     -11.390  13.797  65.590  0.00  0.00    +0.246 C 
ATOM     11  N   UNL     1     -12.317  13.641  66.652  0.00  0.00    -0.179 NA
ATOM     12  O   UNL     1     -10.157  13.834  65.821  0.00  0.00    -0.273 OA
BRANCH  10  13
ATOM     13  C   UNL     1     -11.834  13.771  64.165  0.00  0.00    +0.087 C 
BRANCH  13  15
ATOM     14  C   UNL     1     -12.054  11.944  63.444  0.00  0.00    +0.001 C 
ATOM     15  C   UNL     1     -12.299  12.358  63.844  0.00  0.00    +0.010 C 
ENDBRANCH  13  15
ENDBRANCH  10  13
ENDBRANCH   1  11
BRANCH   4  16
ATOM     16  O   UNL     1     -12.877  11.183  71.264  0.00  0.00    -0.473 OA
BRANCH  16  17
ATOM     17  C   UNL     1     -13.418   9.922  71.031  0.00  0.00    +0.240 C 
BRANCH  17  18
ATOM     18  C   UNL     1     -13.212   9.103  72.486  0.00  0.00    +0.213 C 
ATOM     19  O   UNL     1     -14.695   8.657  72.484  0.00  0.00    -0.218 OA
BRANCH  18  20
ATOM     20  C   UNL     1     -12.756   7.690  71.690  0.00  0.00    +0.125 C 
BRANCH  20  21
ATOM     21  N   UNL     1     -11.482   7.461  72.373  0.00  0.00    -0.217 NA
BRANCH  21  22
ATOM     22  C   UNL     1     -10.452   7.566  71.369  0.00  0.00    +0.073 C 
ATOM     23  C   UNL     1      -9.638   8.823  71.495  0.00  0.00    +0.019 C 
ATOM     24  C   UNL     1     -10.939   7.308  69.973  0.00  0.00    +0.019 C 
ENDBRANCH  21  22
ENDBRANCH  20  21
ENDBRANCH  18  20
ENDBRANCH  17  18
ENDBRANCH  16  17
ENDBRANCH   4  16
TORSDOF 10
ENDMDL
MODEL 7
REMARK VINA RESULT:      -5.9      3.033      6.827
REMARK  Name = 
REMARK  10 active torsions:
REMARK  status: ('A' for Active; 'I' for Inactive)
REMARK    1  A    between atoms: C_2  and  C_3
REMARK    2  A    between atoms: C_3  and  C_4
REMARK    3  A    between atoms: N_6  and  C_7
REMARK    4  A    between atoms: C_10  and  O_11
REMARK    5  A    between atoms: O_11  and  C_12
REMARK    6  A    between atoms: C_12  and  C_13
REMARK    7  A    between atoms: C_13  and  C_15
REMARK    8  A    between atoms: C_15  and  N_16
REMARK    9  A    between atoms: N_16  and  C_17
REMARK   10  A    between atoms: C_20  and  C_21
REMARK                            x       y       z     vdW  Elec       q    Type
REMARK                         _______ _______ _______ _____ _____    ______ ____
ROOT
ATOM      1  C   UNL     1     -11.900  13.994  69.508  0.00  0.00    +0.074 A 
ATOM      2  C   UNL     1     -11.930  14.241  68.144  0.00  0.00    +0.022 A 
ATOM      3  C   UNL     1     -11.750  13.217  67.221  0.00  0.00    +0.070 A 
ATOM      4  C   UNL     1     -11.615  11.897  67.637  0.00  0.00    +0.141 A 
ATOM      5  C   UNL     1     -11.976  11.665  68.960  0.00  0.00    +0.038 A 
ATOM      6  C   UNL     1     -11.946  12.667  69.918  0.00  0.00    +0.020 A 
ENDROOT
BRANCH   3   7
ATOM      7  C   UNL     1     -11.854  13.456  65.775  0.00  0.00    +0.176 C 
ATOM      8  O   UNL     1     -12.991  13.854  65.381  0.00  0.00    -0.291 OA
ATOM      9  C   UNL     1     -10.689  14.175  65.169  0.00  0.00    +0.077 C 
ENDBRANCH   3   7
BRANCH   1  11
ATOM     10  C   UNL     1     -12.400  15.648  71.237  0.00  0.00    +0.246 C 
ATOM     11  N   UNL     1     -11.452  14.998  70.407  0.00  0.00    -0.179 NA
ATOM     12  O   UNL     1     -13.626  15.578  70.979  0.00  0.00    -0.273 OA
BRANCH  10  13
ATOM     13  C   UNL     1     -11.991  16.302  72.515  0.00  0.00    +0.087 C 
BRANCH  13  15
ATOM     14  C   UNL     1     -12.508  15.423  74.209  0.00  0.00    +0.001 C 
ATOM     15  C   UNL     1     -12.249  15.319  73.649  0.00  0.00    +0.010 C 
ENDBRANCH  13  15
ENDBRANCH  10  13
ENDBRANCH   1  11
BRANCH   4  16
ATOM     16  O   UNL     1     -10.709  11.107  66.952  0.00  0.00    -0.473 OA
BRANCH  16  17
ATOM     17  C   UNL     1      -9.439  10.739  67.390  0.00  0.00    +0.240 C 
BRANCH  17  18
ATOM     18  C   UNL     1      -9.608   9.132  67.858  0.00  0.00    +0.213 C 
ATOM     19  O   UNL     1      -8.189   8.795  67.337  0.00  0.00    -0.218 OA
BRANCH  18  20
ATOM     20  C   UNL     1      -8.999   9.457  69.394  0.00  0.00    +0.125 C 
BRANCH  20  21
ATOM     21  N   UNL     1      -9.347   8.190  70.036  0.00  0.00    -0.217 NA
BRANCH  21  22
ATOM     22  C   UNL     1     -10.761   8.242  70.312  0.00  0.00    +0.073 C 
ATOM     23  C   UNL     1     -11.092   9.081  71.516  0.00  0.00    +0.019 C 
ATOM     24  C   UNL     1     -11.427   6.896  70.322  0.00  0.00    +0.019 C 
ENDBRANCH  21  22
ENDBRANCH  20  21
ENDBRANCH  18  20
ENDBRANCH  17  18
ENDBRANCH  16  17
ENDBRANCH   4  16
TORSDOF 10
ENDMDL
MODEL 8
REMARK VINA RESULT:      -5.8      2.968      8.365
REMARK  Name = 
REMARK  10 active torsions:
REMARK  status: ('A' for Active; 'I' for Inactive)
REMARK    1  A    between atoms: C_2  and  C_3
REMARK    2  A    between atoms: C_3  and  C_4
REMARK    3  A    between atoms: N_6  and  C_7
REMARK    4  A    between atoms: C_10  and  O_11
REMARK    5  A    between atoms: O_11  and  C_12
REMARK    6  A    between atoms: C_12  and  C_13
REMARK    7  A    between atoms: C_13  and  C_15
REMARK    8  A    between atoms: C_15  and  N_16
REMARK    9  A    between atoms: N_16  and  C_17
REMARK   10  A    between atoms: C_20  and  C_21
REMARK                            x       y       z     vdW  Elec       q    Type
REMARK                         _______ _______ _______ _____ _____    ______ ____
ROOT
ATOM      1  C   UNL     1     -10.748  15.485  67.003  0.00  0.00    +0.074 A 
ATOM      2  C   UNL     1     -11.033  14.637  65.943  0.00  0.00    +0.022 A 
ATOM      3  C   UNL     1     -11.596  13.383  66.155  0.00  0.00    +0.070 A 
ATOM      4  C   UNL     1     -11.966  12.973  67.432  0.00  0.00    +0.141 A 
ATOM      5  C   UNL     1     -12.016  13.991  68.377  0.00  0.00    +0.038 A 
ATOM      6  C   UNL     1     -11.276  15.156  68.245  0.00  0.00    +0.020 A 
ENDROOT
BRANCH   3   7
ATOM      7  C   UNL     1     -11.971  12.508  65.036  0.00  0.00    +0.176 C 
ATOM      8  O   UNL     1     -13.197  12.544  64.717  0.00  0.00    -0.291 OA
ATOM      9  C   UNL     1     -11.019  12.519  63.880  0.00  0.00    +0.077 C 
ENDBRANCH   3   7
BRANCH   1  11
ATOM     10  C   UNL     1      -9.845  17.600  66.173  0.00  0.00    +0.246 C 
ATOM     11  N   UNL     1      -9.668  16.403  66.912  0.00  0.00    -0.179 NA
ATOM     12  O   UNL     1     -10.798  17.713  65.364  0.00  0.00    -0.273 OA
BRANCH  10  13
ATOM     13  C   UNL     1      -9.006  18.805  66.438  0.00  0.00    +0.087 C 
BRANCH  13  15
ATOM     14  C   UNL     1      -9.892  20.232  67.481  0.00  0.00    +0.001 C 
ATOM     15  C   UNL     1      -9.921  19.912  66.945  0.00  0.00    +0.010 C 
ENDBRANCH  13  15
ENDBRANCH  10  13
ENDBRANCH   1  11
BRANCH   4  16
ATOM     16  O   UNL     1     -11.741  11.648  67.760  0.00  0.00    -0.473 OA
BRANCH  16  17
ATOM     17  C   UNL     1     -10.511  11.071  68.067  0.00  0.00    +0.240 C 
BRANCH  17  18
ATOM     18  C   UNL     1     -10.901   9.546  68.661  0.00  0.00    +0.213 C 
ATOM     19  O   UNL     1      -9.404   9.156  68.738  0.00  0.00    -0.218 OA
BRANCH  18  20
ATOM     20  C   UNL     1     -10.870  10.097  70.252  0.00  0.00    +0.125 C 
BRANCH  20  21
ATOM     21  N   UNL     1     -11.725   9.072  70.851  0.00  0.00    -0.217 NA
BRANCH  21  22
ATOM     22  C   UNL     1     -12.976   9.714  71.172  0.00  0.00    +0.073 C 
ATOM     23  C   UNL     1     -12.838  11.198  71.370  0.00  0.00    +0.019 C 
ATOM     24  C   UNL     1     -13.742   9.034  72.269  0.00  0.00    +0.019 C 
ENDBRANCH  21  22
ENDBRANCH  20  21
ENDBRANCH  18  20
ENDBRANCH  17  18
ENDBRANCH  16  17
ENDBRANCH   4  16
TORSDOF 10
ENDMDL
MODEL 9
REMARK VINA RESULT:      -5.8      4.042      6.402
REMARK  Name = 
REMARK  10 active torsions:
REMARK  status: ('A' for Active; 'I' for Inactive)
REMARK    1  A    between atoms: C_2  and  C_3
REMARK    2  A    between atoms: C_3  and  C_4
REMARK    3  A    between atoms: N_6  and  C_7
REMARK    4  A    between atoms: C_10  and  O_11
REMARK    5  A    between atoms: O_11  and  C_12
REMARK    6  A    between atoms: C_12  and  C_13
REMARK    7  A    between atoms: C_13  and  C_15
REMARK    8  A    between atoms: C_15  and  N_16
REMARK    9  A    between atoms: N_16  and  C_17
REMARK   10  A    between atoms: C_20  and  C_21
REMARK                            x       y       z     vdW  Elec       q    Type
REMARK                         _______ _______ _______ _____ _____    ______ ____
ROOT
ATOM      1  C   UNL     1     -11.653  14.652  69.550  0.00  0.00    +0.074 A 
ATOM      2  C   UNL     1     -12.093  14.120  68.346  0.00  0.00    +0.022 A 
ATOM      3  C   UNL     1     -11.234  13.984  67.261  0.00  0.00    +0.070 A 
ATOM      4  C   UNL     1      -9.885  14.303  67.374  0.00  0.00    +0.141 A 
ATOM      5  C   UNL     1      -9.431  14.456  68.680  0.00  0.00    +0.038 A 
ATOM      6  C   UNL     1     -10.281  14.801  69.719  0.00  0.00    +0.020 A 
ENDROOT
BRANCH   3   7
ATOM      7  C   UNL     1     -11.670  13.354  66.008  0.00  0.00    +0.176 C 
ATOM      8  O   UNL     1     -12.112  12.172  66.131  0.00  0.00    -0.291 OA
ATOM      9  C   UNL     1     -12.474  14.236  65.104  0.00  0.00    +0.077 C 
ENDBRANCH   3   7
BRANCH   1  11
ATOM     10  C   UNL     1     -13.095  14.712  71.523  0.00  0.00    +0.246 C 
ATOM     11  N   UNL     1     -12.552  15.364  70.387  0.00  0.00    -0.179 NA
ATOM     12  O   UNL     1     -13.044  13.461  71.623  0.00  0.00    -0.273 OA
BRANCH  10  13
ATOM     13  C   UNL     1     -13.602  15.487  72.692  0.00  0.00    +0.087 C 
BRANCH  13  15
ATOM     14  C   UNL     1     -12.522  15.731  74.330  0.00  0.00    +0.001 C 
ATOM     15  C   UNL     1     -12.561  15.403  73.799  0.00  0.00    +0.010 C 
ENDBRANCH  13  15
ENDBRANCH  10  13
ENDBRANCH   1  11
BRANCH   4  16
ATOM     16  O   UNL     1      -9.288  14.923  66.290  0.00  0.00    -0.473 OA
BRANCH  16  17
ATOM     17  C   UNL     1      -9.206  16.295  66.067  0.00  0.00    +0.240 C 
BRANCH  17  18
ATOM     18  C   UNL     1      -7.636  16.698  66.518  0.00  0.00    +0.213 C 
ATOM     19  O   UNL     1      -7.595  17.843  65.475  0.00  0.00    -0.218 OA
BRANCH  18  20
ATOM     20  C   UNL     1      -8.190  17.758  67.704  0.00  0.00    +0.125 C 
BRANCH  20  21
ATOM     21  N   UNL     1      -7.377  17.274  68.820  0.00  0.00    -0.217 NA
BRANCH  21  22
ATOM     22  C   UNL     1      -6.337  18.251  69.027  0.00  0.00    +0.073 C 
ATOM     23  C   UNL     1      -5.452  17.925  70.198  0.00  0.00    +0.019 C 
ATOM     24  C   UNL     1      -6.830  19.669  69.027  0.00  0.00    +0.019 C 
ENDBRANCH  21  22
ENDBRANCH  20  21
ENDBRANCH  18  20
ENDBRANCH  17  18
ENDBRANCH  16  17
ENDBRANCH   4  16
TORSDOF 10
ENDMDL
