MODEL 1
REMARK VINA RESULT:      -5.4      0.000      0.000
REMARK  Name = 
REMARK  3 active torsions:
REMARK  status: ('A' for Active; 'I' for Inactive)
REMARK    1  A    between atoms: CA_2  and  CB_3
REMARK    2  A    between atoms: CA_2  and  C_11
REMARK    3  A    between atoms: CB_3  and  CG_4
REMARK                            x       y       z     vdW  Elec       q    Type
REMARK                         _______ _______ _______ _____ _____    ______ ____
ROOT
ATOM      1  CG  TYR A   1     -12.066  14.130  69.843  0.00  0.00    -0.020 A 
ATOM      2  CD2 TYR A   1     -11.761  14.821  68.686  0.00  0.00    -0.001 A 
ATOM      3  CE2 TYR A   1     -11.674  14.200  67.443  0.00  0.00    +0.042 A 
ATOM      4  CZ  TYR A   1     -11.768  12.822  67.353  0.00  0.00    +0.196 A 
ATOM      5  OH  TYR A   1     -12.190  12.216  66.164  0.00  0.00    -0.287 OA
ATOM      6  CE1 TYR A   1     -11.783  12.132  68.559  0.00  0.00    +0.042 A 
ATOM      7  CD1 TYR A   1     -11.819  12.789  69.783  0.00  0.00    -0.001 A 
ENDROOT
BRANCH   1   8
ATOM      8  CB  TYR A   1     -13.122  14.757  70.697  0.00  0.00    +0.057 C 
BRANCH   8  10
ATOM      9  N   TYR A   1     -13.959  13.580  72.549  0.00  0.00    -0.120 NA
ATOM     10  CA  TYR A   1     -12.626  14.425  72.259  0.00  0.00    +0.199 C 
BRANCH  10  11
ATOM     11  C   TYR A   1     -13.338  15.805  72.802  0.00  0.00    +0.382 C 
ATOM     12  OXT TYR A   1     -14.611  15.987  72.312  0.00  0.00    -0.244 OA
ATOM     13  O   TYR A   1     -13.062  16.043  73.995  0.00  0.00    -0.244 OA
ENDBRANCH  10  11
ENDBRANCH   8  10
ENDBRANCH   1   8
TORSDOF 3
ENDMDL
MODEL 2
REMARK VINA RESULT:      -5.3      1.268      1.507
REMARK  Name = 
REMARK  3 active torsions:
REMARK  status: ('A' for Active; 'I' for Inactive)
REMARK    1  A    between atoms: CA_2  and  CB_3
REMARK    2  A    between atoms: CA_2  and  C_11
REMARK    3  A    between atoms: CB_3  and  CG_4
REMARK                            x       y       z     vdW  Elec       q    Type
REMARK                         _______ _______ _______ _____ _____    ______ ____
ROOT
ATOM      1  CG  TYR A   1     -11.643  13.394  69.512  0.00  0.00    -0.020 A 
ATOM      2  CD2 TYR A   1     -11.786  14.409  68.586  0.00  0.00    -0.001 A 
ATOM      3  CE2 TYR A   1     -11.973  14.164  67.228  0.00  0.00    +0.042 A 
ATOM      4  CZ  TYR A   1     -11.892  12.870  66.743  0.00  0.00    +0.196 A 
ATOM      5  OH  TYR A   1     -12.547  12.512  65.560  0.00  0.00    -0.287 OA
ATOM      6  CE1 TYR A   1     -11.460  11.907  67.648  0.00  0.00    +0.042 A 
ATOM      7  CD1 TYR A   1     -11.235  12.202  68.987  0.00  0.00    -0.001 A 
ENDROOT
BRANCH   1   8
ATOM      8  CB  TYR A   1     -12.486  13.532  70.740  0.00  0.00    +0.057 C 
BRANCH   8  10
ATOM      9  N   TYR A   1     -11.809  15.334  72.085  0.00  0.00    -0.120 NA
ATOM     10  CA  TYR A   1     -12.798  15.171  70.832  0.00  0.00    +0.199 C 
BRANCH  10  11
ATOM     11  C   TYR A   1     -14.077  14.895  71.829  0.00  0.00    +0.382 C 
ATOM     12  OXT TYR A   1     -13.961  13.726  72.547  0.00  0.00    -0.244 OA
ATOM     13  O   TYR A   1     -14.501  15.942  72.358  0.00  0.00    -0.244 OA
ENDBRANCH  10  11
ENDBRANCH   8  10
ENDBRANCH   1   8
TORSDOF 3
ENDMDL
MODEL 3
REMARK VINA RESULT:      -5.2      4.627      6.585
REMARK  Name = 
REMARK  3 active torsions:
REMARK  status: ('A' for Active; 'I' for Inactive)
REMARK    1  A    between atoms: CA_2  and  CB_3
REMARK    2  A    between atoms: CA_2  and  C_11
REMARK    3  A    between atoms: CB_3  and  CG_4
REMARK                            x       y       z     vdW  Elec       q    Type
REMARK                         _______ _______ _______ _____ _____    ______ ____
ROOT
ATOM      1  CG  TYR A   1     -10.770  15.419  66.745  0.00  0.00    -0.020 A 
ATOM      2  CD2 TYR A   1     -10.787  15.806  68.072  0.00  0.00    -0.001 A 
ATOM      3  CE2 TYR A   1     -10.693  17.138  68.464  0.00  0.00    +0.042 A 
ATOM      4  CZ  TYR A   1     -10.445  18.120  67.520  0.00  0.00    +0.196 A 
ATOM      5  OH  TYR A   1     -10.836  19.443  67.752  0.00  0.00    -0.287 OA
ATOM      6  CE1 TYR A   1     -10.143  17.671  66.240  0.00  0.00    +0.042 A 
ATOM      7  CD1 TYR A   1     -10.200  16.325  65.898  0.00  0.00    -0.001 A 
ENDROOT
BRANCH   1   8
ATOM      8  CB  TYR A   1     -11.843  14.453  66.352  0.00  0.00    +0.057 C 
BRANCH   8  10
ATOM      9  N   TYR A   1     -12.587  14.499  64.125  0.00  0.00    -0.120 NA
ATOM     10  CA  TYR A   1     -11.325  13.855  64.879  0.00  0.00    +0.199 C 
BRANCH  10  11
ATOM     11  C   TYR A   1     -12.147  12.453  65.134  0.00  0.00    +0.382 C 
ATOM     12  OXT TYR A   1     -12.065  12.006  66.434  0.00  0.00    -0.244 OA
ATOM     13  O   TYR A   1     -13.219  12.408  64.500  0.00  0.00    -0.244 OA
ENDBRANCH  10  11
ENDBRANCH   8  10
ENDBRANCH   1   8
TORSDOF 3
ENDMDL
MODEL 4
REMARK VINA RESULT:      -5.2      3.151      6.541
REMARK  Name = 
REMARK  3 active torsions:
REMARK  status: ('A' for Active; 'I' for Inactive)
REMARK    1  A    between atoms: CA_2  and  CB_3
REMARK    2  A    between atoms: CA_2  and  C_11
REMARK    3  A    between atoms: CB_3  and  CG_4
REMARK                            x       y       z     vdW  Elec       q    Type
REMARK                         _______ _______ _______ _____ _____    ______ ____
ROOT
ATOM      1  CG  TYR A   1     -11.635  14.076  67.132  0.00  0.00    -0.020 A 
ATOM      2  CD2 TYR A   1     -11.849  13.361  68.295  0.00  0.00    -0.001 A 
ATOM      3  CE2 TYR A   1     -12.031  13.977  69.530  0.00  0.00    +0.042 A 
ATOM      4  CZ  TYR A   1     -11.870  15.347  69.648  0.00  0.00    +0.196 A 
ATOM      5  OH  TYR A   1     -12.509  16.052  70.674  0.00  0.00    -0.287 OA
ATOM      6  CE1 TYR A   1     -11.370  16.000  68.528  0.00  0.00    +0.042 A 
ATOM      7  CD1 TYR A   1     -11.155  15.339  67.324  0.00  0.00    -0.001 A 
ENDROOT
BRANCH   1   8
ATOM      8  CB  TYR A   1     -12.476  13.660  65.967  0.00  0.00    +0.057 C 
BRANCH   8  10
ATOM      9  N   TYR A   1     -12.542  14.915  63.983  0.00  0.00    -0.120 NA
ATOM     10  CA  TYR A   1     -11.483  13.908  64.645  0.00  0.00    +0.199 C 
BRANCH  10  11
ATOM     11  C   TYR A   1     -12.160  12.626  63.867  0.00  0.00    +0.382 C 
ATOM     12  OXT TYR A   1     -11.238  11.683  63.473  0.00  0.00    -0.244 OA
ATOM     13  O   TYR A   1     -13.255  12.295  64.364  0.00  0.00    -0.244 OA
ENDBRANCH  10  11
ENDBRANCH   8  10
ENDBRANCH   1   8
TORSDOF 3
ENDMDL
MODEL 5
REMARK VINA RESULT:      -5.2      5.478      6.335
REMARK  Name = 
REMARK  3 active torsions:
REMARK  status: ('A' for Active; 'I' for Inactive)
REMARK    1  A    between atoms: CA_2  and  CB_3
REMARK    2  A    between atoms: CA_2  and  C_11
REMARK    3  A    between atoms: CB_3  and  CG_4
REMARK                            x       y       z     vdW  Elec       q    Type
REMARK                         _______ _______ _______ _____ _____    ______ ____
ROOT
ATOM      1  CG  TYR A   1     -11.853  12.961  65.562  0.00  0.00    -0.020 A 
ATOM      2  CD2 TYR A   1     -10.992  11.999  66.057  0.00  0.00    -0.001 A 
ATOM      3  CE2 TYR A   1     -10.361  11.067  65.238  0.00  0.00    +0.042 A 
ATOM      4  CZ  TYR A   1     -10.687  10.997  63.894  0.00  0.00    +0.196 A 
ATOM      5  OH  TYR A   1      -9.774  10.478  62.969  0.00  0.00    -0.287 OA
ATOM      6  CE1 TYR A   1     -11.762  11.777  63.487  0.00  0.00    +0.042 A 
ATOM      7  CD1 TYR A   1     -12.400  12.661  64.348  0.00  0.00    -0.001 A 
ENDROOT
BRANCH   1   8
ATOM      8  CB  TYR A   1     -11.603  14.351  66.056  0.00  0.00    +0.057 C 
BRANCH   8  10
ATOM      9  N   TYR A   1      -9.507  15.347  66.419  0.00  0.00    -0.120 NA
ATOM     10  CA  TYR A   1     -10.328  14.889  65.118  0.00  0.00    +0.199 C 
BRANCH  10  11
ATOM     11  C   TYR A   1     -11.021  16.374  64.986  0.00  0.00    +0.382 C 
ATOM     12  OXT TYR A   1     -10.264  17.377  65.548  0.00  0.00    -0.244 OA
ATOM     13  O   TYR A   1     -11.600  16.532  63.893  0.00  0.00    -0.244 OA
ENDBRANCH  10  11
ENDBRANCH   8  10
ENDBRANCH   1   8
TORSDOF 3
ENDMDL
MODEL 6
REMARK VINA RESULT:      -5.1      2.173      5.521
REMARK  Name = 
REMARK  3 active torsions:
REMARK  status: ('A' for Active; 'I' for Inactive)
REMARK    1  A    between atoms: CA_2  and  CB_3
REMARK    2  A    between atoms: CA_2  and  C_11
REMARK    3  A    between atoms: CB_3  and  CG_4
REMARK                            x       y       z     vdW  Elec       q    Type
REMARK                         _______ _______ _______ _____ _____    ______ ____
ROOT
ATOM      1  CG  TYR A   1     -11.926  14.104  70.429  0.00  0.00    -0.020 A 
ATOM      2  CD2 TYR A   1     -12.845  13.477  71.248  0.00  0.00    -0.001 A 
ATOM      3  CE2 TYR A   1     -13.541  14.153  72.247  0.00  0.00    +0.042 A 
ATOM      4  CZ  TYR A   1     -13.228  15.470  72.535  0.00  0.00    +0.196 A 
ATOM      5  OH  TYR A   1     -14.179  16.313  73.122  0.00  0.00    -0.287 OA
ATOM      6  CE1 TYR A   1     -12.106  15.983  71.896  0.00  0.00    +0.042 A 
ATOM      7  CD1 TYR A   1     -11.407  15.258  70.939  0.00  0.00    -0.001 A 
ENDROOT
BRANCH   1   8
ATOM      8  CB  TYR A   1     -12.080  13.820  68.968  0.00  0.00    +0.057 C 
BRANCH   8  10
ATOM      9  N   TYR A   1     -10.503  13.871  67.229  0.00  0.00    -0.120 NA
ATOM     10  CA  TYR A   1     -10.679  13.002  68.566  0.00  0.00    +0.199 C 
BRANCH  10  11
ATOM     11  C   TYR A   1     -11.548  11.864  67.757  0.00  0.00    +0.382 C 
ATOM     12  OXT TYR A   1     -12.198  10.984  68.592  0.00  0.00    -0.244 OA
ATOM     13  O   TYR A   1     -12.104  12.325  66.741  0.00  0.00    -0.244 OA
ENDBRANCH  10  11
ENDBRANCH   8  10
ENDBRANCH   1   8
TORSDOF 3
ENDMDL
MODEL 7
REMARK VINA RESULT:      -5.1      4.601      5.176
REMARK  Name = 
REMARK  3 active torsions:
REMARK  status: ('A' for Active; 'I' for Inactive)
REMARK    1  A    between atoms: CA_2  and  CB_3
REMARK    2  A    between atoms: CA_2  and  C_11
REMARK    3  A    between atoms: CB_3  and  CG_4
REMARK                            x       y       z     vdW  Elec       q    Type
REMARK                         _______ _______ _______ _____ _____    ______ ____
ROOT
ATOM      1  CG  TYR A   1     -10.646  14.331  66.727  0.00  0.00    -0.020 A 
ATOM      2  CD2 TYR A   1     -10.016  13.665  65.693  0.00  0.00    -0.001 A 
ATOM      3  CE2 TYR A   1     -10.675  13.307  64.520  0.00  0.00    +0.042 A 
ATOM      4  CZ  TYR A   1     -12.042  13.499  64.411  0.00  0.00    +0.196 A 
ATOM      5  OH  TYR A   1     -12.640  13.642  63.154  0.00  0.00    -0.287 OA
ATOM      6  CE1 TYR A   1     -12.695  13.900  65.570  0.00  0.00    +0.042 A 
ATOM      7  CD1 TYR A   1     -12.005  14.201  66.739  0.00  0.00    -0.001 A 
ENDROOT
BRANCH   1   8
ATOM      8  CB  TYR A   1      -9.906  15.514  67.265  0.00  0.00    +0.057 C 
BRANCH   8  10
ATOM      9  N   TYR A   1      -8.940  17.295  66.078  0.00  0.00    -0.120 NA
ATOM     10  CA  TYR A   1     -10.442  16.787  66.323  0.00  0.00    +0.199 C 
BRANCH  10  11
ATOM     11  C   TYR A   1     -10.587  17.741  67.654  0.00  0.00    +0.382 C 
ATOM     12  OXT TYR A   1     -10.954  19.034  67.357  0.00  0.00    -0.244 OA
ATOM     13  O   TYR A   1     -11.085  17.132  68.622  0.00  0.00    -0.244 OA
ENDBRANCH  10  11
ENDBRANCH   8  10
ENDBRANCH   1   8
TORSDOF 3
ENDMDL
MODEL 8
REMARK VINA RESULT:      -5.0      8.408      9.092
REMARK  Name = 
REMARK  3 active torsions:
REMARK  status: ('A' for Active; 'I' for Inactive)
REMARK    1  A    between atoms: CA_2  and  CB_3
REMARK    2  A    between atoms: CA_2  and  C_11
REMARK    3  A    between atoms: CB_3  and  CG_4
REMARK                            x       y       z     vdW  Elec       q    Type
REMARK                         _______ _______ _______ _____ _____    ______ ____
ROOT
ATOM      1  CG  TYR A   1      -6.466  19.642  69.096  0.00  0.00    -0.020 A 
ATOM      2  CD2 TYR A   1      -6.437  20.566  68.069  0.00  0.00    -0.001 A 
ATOM      3  CE2 TYR A   1      -7.487  20.715  67.166  0.00  0.00    +0.042 A 
ATOM      4  CZ  TYR A   1      -8.555  19.834  67.199  0.00  0.00    +0.196 A 
ATOM      5  OH  TYR A   1      -9.806  20.217  66.704  0.00  0.00    -0.287 OA
ATOM      6  CE1 TYR A   1      -8.418  18.743  68.048  0.00  0.00    +0.042 A 
ATOM      7  CD1 TYR A   1      -7.329  18.603  68.900  0.00  0.00    -0.001 A 
ENDROOT
BRANCH   1   8
ATOM      8  CB  TYR A   1      -6.074  20.173  70.439  0.00  0.00    +0.057 C 
BRANCH   8  10
ATOM      9  N   TYR A   1      -5.109  18.552  71.837  0.00  0.00    -0.120 NA
ATOM     10  CA  TYR A   1      -4.551  19.534  70.696  0.00  0.00    +0.199 C 
BRANCH  10  11
ATOM     11  C   TYR A   1      -4.225  20.701  71.809  0.00  0.00    +0.382 C 
ATOM     12  OXT TYR A   1      -3.185  20.372  72.649  0.00  0.00    -0.244 OA
ATOM     13  O   TYR A   1      -4.341  21.850  71.339  0.00  0.00    -0.244 OA
ENDBRANCH  10  11
ENDBRANCH   8  10
ENDBRANCH   1   8
TORSDOF 3
ENDMDL
MODEL 9
REMARK VINA RESULT:      -4.9      3.872      5.833
REMARK  Name = 
REMARK  3 active torsions:
REMARK  status: ('A' for Active; 'I' for Inactive)
REMARK    1  A    between atoms: CA_2  and  CB_3
REMARK    2  A    between atoms: CA_2  and  C_11
REMARK    3  A    between atoms: CB_3  and  CG_4
REMARK                            x       y       z     vdW  Elec       q    Type
REMARK                         _______ _______ _______ _____ _____    ______ ____
ROOT
ATOM      1  CG  TYR A   1     -11.455  13.326  67.574  0.00  0.00    -0.020 A 
ATOM      2  CD2 TYR A   1     -11.218  11.990  67.309  0.00  0.00    -0.001 A 
ATOM      3  CE2 TYR A   1     -11.506  10.982  68.226  0.00  0.00    +0.042 A 
ATOM      4  CZ  TYR A   1     -11.927  11.312  69.503  0.00  0.00    +0.196 A 
ATOM      5  OH  TYR A   1     -12.687  10.409  70.254  0.00  0.00    -0.287 OA
ATOM      6  CE1 TYR A   1     -11.876  12.661  69.832  0.00  0.00    +0.042 A 
ATOM      7  CD1 TYR A   1     -11.535  13.634  68.901  0.00  0.00    -0.001 A 
ENDROOT
BRANCH   1   8
ATOM      8  CB  TYR A   1     -12.164  14.072  66.488  0.00  0.00    +0.057 C 
BRANCH   8  10
ATOM      9  N   TYR A   1     -10.671  15.865  66.224  0.00  0.00    -0.120 NA
ATOM     10  CA  TYR A   1     -10.943  14.498  65.429  0.00  0.00    +0.199 C 
BRANCH  10  11
ATOM     11  C   TYR A   1     -12.027  15.244  64.443  0.00  0.00    +0.382 C 
ATOM     12  OXT TYR A   1     -11.571  16.442  63.943  0.00  0.00    -0.244 OA
ATOM     13  O   TYR A   1     -12.649  14.436  63.724  0.00  0.00    -0.244 OA
ENDBRANCH  10  11
ENDBRANCH   8  10
ENDBRANCH   1   8
TORSDOF 3
ENDMDL
