MODEL 1
REMARK VINA RESULT:      -3.9      0.000      0.000
REMARK  Name = 
REMARK  0 active torsions:
REMARK  status: ('A' for Active; 'I' for Inactive)
REMARK                            x       y       z     vdW  Elec       q    Type
REMARK                         _______ _______ _______ _____ _____    ______ ____
ROOT
ATOM      1  F   UNL     1     -12.245  14.915  74.430  0.00  0.00    -0.072 F 
ATOM      2  S   UNL     1     -12.856  15.429  73.099  0.00  0.00    +0.433 S 
ATOM      3  F   UNL     1     -13.759  15.476  70.835  0.00  0.00    -0.072 F 
ATOM      4  F   UNL     1     -11.696  16.962  72.652  0.00  0.00    -0.072 F 
ATOM      5  F   UNL     1     -13.464  13.439  72.713  0.00  0.00    -0.072 F 
ATOM      6  F   UNL     1     -14.342  16.359  73.208  0.00  0.00    -0.072 F 
ATOM      7  F   UNL     1     -11.218  14.658  71.523  0.00  0.00    -0.072 F 
ENDROOT
TORSDOF 0
ENDMDL
MODEL 2
REMARK VINA RESULT:      -3.8      0.418      2.606
REMARK  Name = 
REMARK  0 active torsions:
REMARK  status: ('A' for Active; 'I' for Inactive)
REMARK                            x       y       z     vdW  Elec       q    Type
REMARK                         _______ _______ _______ _____ _____    ______ ____
ROOT
ATOM      1  F   UNL     1     -14.319  16.362  73.237  0.00  0.00    -0.072 F 
ATOM      2  S   UNL     1     -13.068  15.642  72.666  0.00  0.00    +0.433 S 
ATOM      3  F   UNL     1     -11.640  14.249  71.266  0.00  0.00    -0.072 F 
ATOM      4  F   UNL     1     -12.273  14.815  74.273  0.00  0.00    -0.072 F 
ATOM      5  F   UNL     1     -14.131  15.424  70.850  0.00  0.00    -0.072 F 
ATOM      6  F   UNL     1     -11.677  16.642  72.277  0.00  0.00    -0.072 F 
ATOM      7  F   UNL     1     -13.794  13.355  72.735  0.00  0.00    -0.072 F 
ENDROOT
TORSDOF 0
ENDMDL
MODEL 3
REMARK VINA RESULT:      -3.8      0.254      2.589
REMARK  Name = 
REMARK  0 active torsions:
REMARK  status: ('A' for Active; 'I' for Inactive)
REMARK                            x       y       z     vdW  Elec       q    Type
REMARK                         _______ _______ _______ _____ _____    ______ ____
ROOT
ATOM      1  F   UNL     1     -11.693  17.068  72.700  0.00  0.00    -0.072 F 
ATOM      2  S   UNL     1     -12.461  15.737  72.923  0.00  0.00    +0.433 S 
ATOM      3  F   UNL     1     -13.279  13.461  72.619  0.00  0.00    -0.072 F 
ATOM      4  F   UNL     1     -14.316  16.349  73.209  0.00  0.00    -0.072 F 
ATOM      5  F   UNL     1     -11.029  14.806  71.674  0.00  0.00    -0.072 F 
ATOM      6  F   UNL     1     -12.287  14.965  74.491  0.00  0.00    -0.072 F 
ATOM      7  F   UNL     1     -13.619  15.530  70.830  0.00  0.00    -0.072 F 
ENDROOT
TORSDOF 0
ENDMDL
MODEL 4
REMARK VINA RESULT:      -3.7      0.474      3.052
REMARK  Name = 
REMARK  0 active torsions:
REMARK  status: ('A' for Active; 'I' for Inactive)
REMARK                            x       y       z     vdW  Elec       q    Type
REMARK                         _______ _______ _______ _____ _____    ______ ____
ROOT
ATOM      1  F   UNL     1     -13.971  15.476  70.847  0.00  0.00    -0.072 F 
ATOM      2  S   UNL     1     -13.214  14.990  72.113  0.00  0.00    +0.433 S 
ATOM      3  F   UNL     1     -12.282  14.917  74.364  0.00  0.00    -0.072 F 
ATOM      4  F   UNL     1     -11.464  14.439  71.387  0.00  0.00    -0.072 F 
ATOM      5  F   UNL     1     -14.364  16.376  73.223  0.00  0.00    -0.072 F 
ATOM      6  F   UNL     1     -13.647  13.410  72.746  0.00  0.00    -0.072 F 
ATOM      7  F   UNL     1     -11.687  16.811  72.452  0.00  0.00    -0.072 F 
ENDROOT
TORSDOF 0
ENDMDL
MODEL 5
REMARK VINA RESULT:      -3.7      0.695      1.977
REMARK  Name = 
REMARK  0 active torsions:
REMARK  status: ('A' for Active; 'I' for Inactive)
REMARK                            x       y       z     vdW  Elec       q    Type
REMARK                         _______ _______ _______ _____ _____    ______ ____
ROOT
ATOM      1  F   UNL     1     -11.732  16.671  72.673  0.00  0.00    -0.072 F 
ATOM      2  S   UNL     1     -12.931  15.711  72.451  0.00  0.00    +0.433 S 
ATOM      3  F   UNL     1     -14.351  13.731  72.521  0.00  0.00    -0.072 F 
ATOM      4  F   UNL     1     -13.243  15.847  70.507  0.00  0.00    -0.072 F 
ATOM      5  F   UNL     1     -12.225  14.592  74.102  0.00  0.00    -0.072 F 
ATOM      6  F   UNL     1     -14.520  16.292  72.925  0.00  0.00    -0.072 F 
ATOM      7  F   UNL     1     -11.830  13.847  71.412  0.00  0.00    -0.072 F 
ENDROOT
TORSDOF 0
ENDMDL
MODEL 6
REMARK VINA RESULT:      -3.7      0.504      3.047
REMARK  Name = 
REMARK  0 active torsions:
REMARK  status: ('A' for Active; 'I' for Inactive)
REMARK                            x       y       z     vdW  Elec       q    Type
REMARK                         _______ _______ _______ _____ _____    ______ ____
ROOT
ATOM      1  F   UNL     1     -13.767  13.401  72.756  0.00  0.00    -0.072 F 
ATOM      2  S   UNL     1     -12.967  14.656  72.315  0.00  0.00    +0.433 S 
ATOM      3  F   UNL     1     -11.727  16.753  72.395  0.00  0.00    -0.072 F 
ATOM      4  F   UNL     1     -14.074  15.384  70.852  0.00  0.00    -0.072 F 
ATOM      5  F   UNL     1     -12.268  14.800  74.307  0.00  0.00    -0.072 F 
ATOM      6  F   UNL     1     -11.534  14.389  71.335  0.00  0.00    -0.072 F 
ATOM      7  F   UNL     1     -14.327  16.405  73.241  0.00  0.00    -0.072 F 
ENDROOT
TORSDOF 0
ENDMDL
MODEL 7
REMARK VINA RESULT:      -3.6      0.452      3.047
REMARK  Name = 
REMARK  0 active torsions:
REMARK  status: ('A' for Active; 'I' for Inactive)
REMARK                            x       y       z     vdW  Elec       q    Type
REMARK                         _______ _______ _______ _____ _____    ______ ____
ROOT
ATOM      1  F   UNL     1     -11.020  14.798  71.657  0.00  0.00    -0.072 F 
ATOM      2  S   UNL     1     -12.459  15.190  72.088  0.00  0.00    +0.433 S 
ATOM      3  F   UNL     1     -14.315  16.327  73.186  0.00  0.00    -0.072 F 
ATOM      4  F   UNL     1     -13.255  13.451  72.577  0.00  0.00    -0.072 F 
ATOM      5  F   UNL     1     -11.673  17.060  72.690  0.00  0.00    -0.072 F 
ATOM      6  F   UNL     1     -13.606  15.555  70.808  0.00  0.00    -0.072 F 
ATOM      7  F   UNL     1     -12.293  14.966  74.473  0.00  0.00    -0.072 F 
ENDROOT
TORSDOF 0
ENDMDL
MODEL 8
REMARK VINA RESULT:      -3.6      0.720      3.025
REMARK  Name = 
REMARK  0 active torsions:
REMARK  status: ('A' for Active; 'I' for Inactive)
REMARK                            x       y       z     vdW  Elec       q    Type
REMARK                         _______ _______ _______ _____ _____    ______ ____
ROOT
ATOM      1  F   UNL     1     -13.274  15.835  70.523  0.00  0.00    -0.072 F 
ATOM      2  S   UNL     1     -12.918  15.621  72.018  0.00  0.00    +0.433 S 
ATOM      3  F   UNL     1     -12.183  14.574  74.093  0.00  0.00    -0.072 F 
ATOM      4  F   UNL     1     -14.519  16.304  72.948  0.00  0.00    -0.072 F 
ATOM      5  F   UNL     1     -11.736  13.975  71.409  0.00  0.00    -0.072 F 
ATOM      6  F   UNL     1     -11.794  16.761  72.744  0.00  0.00    -0.072 F 
ATOM      7  F   UNL     1     -14.304  13.734  72.547  0.00  0.00    -0.072 F 
ENDROOT
TORSDOF 0
ENDMDL
MODEL 9
REMARK VINA RESULT:      -3.5      1.442      2.132
REMARK  Name = 
REMARK  0 active torsions:
REMARK  status: ('A' for Active; 'I' for Inactive)
REMARK                            x       y       z     vdW  Elec       q    Type
REMARK                         _______ _______ _______ _____ _____    ______ ____
ROOT
ATOM      1  F   UNL     1     -13.884  13.207  72.817  0.00  0.00    -0.072 F 
ATOM      2  S   UNL     1     -13.671  14.481  71.957  0.00  0.00    +0.433 S 
ATOM      3  F   UNL     1     -12.741  16.052  70.342  0.00  0.00    -0.072 F 
ATOM      4  F   UNL     1     -13.745  15.928  73.298  0.00  0.00    -0.072 F 
ATOM      5  F   UNL     1     -12.529  13.290  70.633  0.00  0.00    -0.072 F 
ATOM      6  F   UNL     1     -15.041  15.047  71.013  0.00  0.00    -0.072 F 
ATOM      7  F   UNL     1     -11.410  15.044  72.535  0.00  0.00    -0.072 F 
ENDROOT
TORSDOF 0
ENDMDL
