MODEL 1
REMARK VINA RESULT:      -5.8      0.000      0.000
REMARK  Name = 
REMARK  7 active torsions:
REMARK  status: ('A' for Active; 'I' for Inactive)
REMARK    1  A    between atoms: N_2  and  C_4
REMARK    2  A    between atoms: C_4  and  C_5
REMARK    3  A    between atoms: C_5  and  O_6
REMARK    4  A    between atoms: O_6  and  C_7
REMARK    5  A    between atoms: C_7  and  C_9
REMARK    6  A    between atoms: C_9  and  C_10
REMARK    7  A    between atoms: C_9  and  C_16
REMARK                            x       y       z     vdW  Elec       q    Type
REMARK                         _______ _______ _______ _____ _____    ______ ____
ROOT
ATOM      1  C   UNL     1     -12.031  13.834  66.961  0.00  0.00    +0.149 C 
ENDROOT
BRANCH   1   2
ATOM      2  C   UNL     1     -11.353  13.262  65.588  0.00  0.00    -0.010 A 
ATOM      3  C   UNL     1     -12.369  13.186  64.639  0.00  0.00    -0.004 A 
ATOM      4  C   UNL     1     -12.299  12.231  63.630  0.00  0.00    -0.000 A 
ATOM      5  C   UNL     1     -11.166  11.427  63.586  0.00  0.00    -0.000 A 
ATOM      6  C   UNL     1     -10.148  11.613  64.476  0.00  0.00    -0.000 A 
ATOM      7  C   UNL     1     -10.495  12.238  65.670  0.00  0.00    -0.004 A 
ENDBRANCH   1   2
BRANCH   1   8
ATOM      8  C   UNL     1     -10.801  14.920  67.239  0.00  0.00    +0.140 C 
ATOM      9  C   UNL     1     -10.611  15.660  65.958  0.00  0.00    +0.031 C 
ATOM     10  C   UNL     1      -9.122  15.922  65.928  0.00  0.00    +0.003 C 
ATOM     11  C   UNL     1      -8.493  15.098  67.014  0.00  0.00    +0.003 C 
ATOM     12  C   UNL     1      -9.586  14.241  67.624  0.00  0.00    +0.031 C 
ATOM     13  O   UNL     1     -11.339  15.808  68.177  0.00  0.00    -0.225 OA
ENDBRANCH   1   8
BRANCH   1  14
ATOM     14  C   UNL     1     -11.402  12.663  67.930  0.00  0.00    +0.323 C 
ATOM     15  O   UNL     1     -12.064  11.581  67.826  0.00  0.00    -0.250 OA
BRANCH  14  16
ATOM     16  O   UNL     1     -11.248  13.105  69.251  0.00  0.00    -0.447 OA
BRANCH  16  17
ATOM     17  C   UNL     1     -12.261  12.881  70.232  0.00  0.00    +0.226 C 
BRANCH  17  18
ATOM     18  C   UNL     1     -12.599  14.195  70.930  0.00  0.00    +0.120 C 
BRANCH  18  20
ATOM     19  C   UNL     1     -13.663  13.428  72.325  0.00  0.00    +0.090 C 
ATOM     20  N   UNL     1     -13.700  13.892  71.833  0.00  0.00    -0.267 NA
ATOM     21  C   UNL     1     -14.745  14.899  71.690  0.00  0.00    +0.090 C 
ENDBRANCH  18  20
ENDBRANCH  17  18
ENDBRANCH  16  17
ENDBRANCH  14  16
ENDBRANCH   1  14
TORSDOF 7
ENDMDL
MODEL 2
REMARK VINA RESULT:      -5.6      1.349      1.560
REMARK  Name = 
REMARK  7 active torsions:
REMARK  status: ('A' for Active; 'I' for Inactive)
REMARK    1  A    between atoms: N_2  and  C_4
REMARK    2  A    between atoms: C_4  and  C_5
REMARK    3  A    between atoms: C_5  and  O_6
REMARK    4  A    between atoms: O_6  and  C_7
REMARK    5  A    between atoms: C_7  and  C_9
REMARK    6  A    between atoms: C_9  and  C_10
REMARK    7  A    between atoms: C_9  and  C_16
REMARK                            x       y       z     vdW  Elec       q    Type
REMARK                         _______ _______ _______ _____ _____    ______ ____
ROOT
ATOM      1  C   UNL     1     -11.924  14.822  67.671  0.00  0.00    +0.149 C 
ENDROOT
BRANCH   1   2
ATOM      2  C   UNL     1     -11.341  13.969  66.404  0.00  0.00    -0.010 A 
ATOM      3  C   UNL     1     -12.414  13.732  65.550  0.00  0.00    -0.004 A 
ATOM      4  C   UNL     1     -12.420  12.593  64.752  0.00  0.00    -0.000 A 
ATOM      5  C   UNL     1     -11.304  11.767  64.805  0.00  0.00    -0.000 A 
ATOM      6  C   UNL     1     -10.230  12.101  65.578  0.00  0.00    -0.000 A 
ATOM      7  C   UNL     1     -10.493  12.961  66.640  0.00  0.00    -0.004 A 
ENDBRANCH   1   2
BRANCH   1   8
ATOM      8  C   UNL     1     -10.633  15.872  67.692  0.00  0.00    +0.140 C 
ATOM      9  C   UNL     1     -10.404  16.268  66.272  0.00  0.00    +0.031 C 
ATOM     10  C   UNL     1      -8.903  16.432  66.197  0.00  0.00    +0.003 C 
ATOM     11  C   UNL     1      -8.319  15.862  67.458  0.00  0.00    +0.003 C 
ATOM     12  C   UNL     1      -9.458  15.241  68.244  0.00  0.00    +0.031 C 
ATOM     13  O   UNL     1     -11.117  16.990  68.380  0.00  0.00    -0.225 OA
ENDBRANCH   1   8
BRANCH   1  14
ATOM     14  C   UNL     1     -11.302  13.819  68.817  0.00  0.00    +0.323 C 
ATOM     15  O   UNL     1     -11.886  12.688  68.798  0.00  0.00    -0.250 OA
BRANCH  14  16
ATOM     16  O   UNL     1     -11.282  14.421  70.083  0.00  0.00    -0.447 OA
BRANCH  16  17
ATOM     17  C   UNL     1     -12.489  14.801  70.744  0.00  0.00    +0.226 C 
BRANCH  17  18
ATOM     18  C   UNL     1     -12.197  15.916  71.744  0.00  0.00    +0.120 C 
BRANCH  18  20
ATOM     19  C   UNL     1     -13.840  15.665  72.695  0.00  0.00    +0.090 C 
ATOM     20  N   UNL     1     -13.179  15.761  72.807  0.00  0.00    -0.267 NA
ATOM     21  C   UNL     1     -12.497  15.573  74.083  0.00  0.00    +0.090 C 
ENDBRANCH  18  20
ENDBRANCH  17  18
ENDBRANCH  16  17
ENDBRANCH  14  16
ENDBRANCH   1  14
TORSDOF 7
ENDMDL
MODEL 3
REMARK VINA RESULT:      -5.5      2.821      6.277
REMARK  Name = 
REMARK  7 active torsions:
REMARK  status: ('A' for Active; 'I' for Inactive)
REMARK    1  A    between atoms: N_2  and  C_4
REMARK    2  A    between atoms: C_4  and  C_5
REMARK    3  A    between atoms: C_5  and  O_6
REMARK    4  A    between atoms: O_6  and  C_7
REMARK    5  A    between atoms: C_7  and  C_9
REMARK    6  A    between atoms: C_9  and  C_10
REMARK    7  A    between atoms: C_9  and  C_16
REMARK                            x       y       z     vdW  Elec       q    Type
REMARK                         _______ _______ _______ _____ _____    ______ ____
ROOT
ATOM      1  C   UNL     1     -12.424  14.646  69.079  0.00  0.00    +0.149 C 
ENDROOT
BRANCH   1   2
ATOM      2  C   UNL     1     -12.485  14.602  70.712  0.00  0.00    -0.010 A 
ATOM      3  C   UNL     1     -13.812  14.820  71.072  0.00  0.00    -0.004 A 
ATOM      4  C   UNL     1     -14.105  15.425  72.289  0.00  0.00    -0.000 A 
ATOM      5  C   UNL     1     -13.039  15.731  73.126  0.00  0.00    -0.000 A 
ATOM      6  C   UNL     1     -11.763  15.399  72.774  0.00  0.00    -0.000 A 
ATOM      7  C   UNL     1     -11.535  15.234  71.411  0.00  0.00    -0.004 A 
ENDBRANCH   1   2
BRANCH   1   8
ATOM      8  C   UNL     1     -11.484  13.277  68.974  0.00  0.00    +0.140 C 
ATOM      9  C   UNL     1     -11.651  12.771  67.580  0.00  0.00    +0.031 C 
ATOM     10  C   UNL     1     -11.577  11.270  67.746  0.00  0.00    +0.003 C 
ATOM     11  C   UNL     1     -11.657  10.970  69.215  0.00  0.00    +0.003 C 
ATOM     12  C   UNL     1     -11.904  12.283  69.933  0.00  0.00    +0.031 C 
ATOM     13  O   UNL     1     -10.175  13.754  69.107  0.00  0.00    -0.225 OA
ENDBRANCH   1   8
BRANCH   1  14
ATOM     14  C   UNL     1     -11.155  15.689  69.012  0.00  0.00    +0.323 C 
ATOM     15  O   UNL     1     -11.433  16.785  69.595  0.00  0.00    -0.250 OA
BRANCH  14  16
ATOM     16  O   UNL     1     -10.682  15.853  67.702  0.00  0.00    -0.447 OA
BRANCH  16  17
ATOM     17  C   UNL     1      -9.603  16.740  67.407  0.00  0.00    +0.226 C 
BRANCH  17  18
ATOM     18  C   UNL     1     -10.062  17.791  66.400  0.00  0.00    +0.120 C 
BRANCH  18  20
ATOM     19  C   UNL     1     -10.738  19.438  67.104  0.00  0.00    +0.090 C 
ATOM     20  N   UNL     1     -10.203  19.027  67.155  0.00  0.00    -0.267 NA
ATOM     21  C   UNL     1      -9.183  19.086  68.197  0.00  0.00    +0.090 C 
ENDBRANCH  18  20
ENDBRANCH  17  18
ENDBRANCH  16  17
ENDBRANCH  14  16
ENDBRANCH   1  14
TORSDOF 7
ENDMDL
MODEL 4
REMARK VINA RESULT:      -5.5      2.994      6.098
REMARK  Name = 
REMARK  7 active torsions:
REMARK  status: ('A' for Active; 'I' for Inactive)
REMARK    1  A    between atoms: N_2  and  C_4
REMARK    2  A    between atoms: C_4  and  C_5
REMARK    3  A    between atoms: C_5  and  O_6
REMARK    4  A    between atoms: O_6  and  C_7
REMARK    5  A    between atoms: C_7  and  C_9
REMARK    6  A    between atoms: C_9  and  C_10
REMARK    7  A    between atoms: C_9  and  C_16
REMARK                            x       y       z     vdW  Elec       q    Type
REMARK                         _______ _______ _______ _____ _____    ______ ____
ROOT
ATOM      1  C   UNL     1     -10.702  16.440  67.198  0.00  0.00    +0.149 C 
ENDROOT
BRANCH   1   2
ATOM      2  C   UNL     1      -9.990  17.769  67.830  0.00  0.00    -0.010 A 
ATOM      3  C   UNL     1     -10.632  18.873  67.275  0.00  0.00    -0.004 A 
ATOM      4  C   UNL     1      -9.935  20.065  67.113  0.00  0.00    -0.000 A 
ATOM      5  C   UNL     1      -8.627  20.111  67.580  0.00  0.00    -0.000 A 
ATOM      6  C   UNL     1      -8.078  19.035  68.214  0.00  0.00    -0.000 A 
ATOM      7  C   UNL     1      -8.655  17.803  67.925  0.00  0.00    -0.004 A 
ENDBRANCH   1   2
BRANCH   1   8
ATOM      8  C   UNL     1     -10.621  15.590  68.626  0.00  0.00    +0.140 C 
ATOM      9  C   UNL     1     -11.578  14.455  68.483  0.00  0.00    +0.031 C 
ATOM     10  C   UNL     1     -12.117  14.279  69.885  0.00  0.00    +0.003 C 
ATOM     11  C   UNL     1     -11.680  15.466  70.693  0.00  0.00    +0.003 C 
ATOM     12  C   UNL     1     -10.979  16.424  69.748  0.00  0.00    +0.031 C 
ATOM     13  O   UNL     1      -9.324  15.064  68.633  0.00  0.00    -0.225 OA
ENDBRANCH   1   8
BRANCH   1  14
ATOM     14  C   UNL     1      -9.312  15.811  66.584  0.00  0.00    +0.323 C 
ATOM     15  O   UNL     1      -8.801  16.593  65.720  0.00  0.00    -0.250 OA
BRANCH  14  16
ATOM     16  O   UNL     1      -9.492  14.500  66.121  0.00  0.00    -0.447 OA
BRANCH  16  17
ATOM     17  C   UNL     1     -10.327  14.217  64.998  0.00  0.00    +0.226 C 
BRANCH  17  18
ATOM     18  C   UNL     1     -10.645  12.725  64.958  0.00  0.00    +0.120 C 
BRANCH  18  20
ATOM     19  C   UNL     1     -12.539  12.929  65.158  0.00  0.00    +0.090 C 
ATOM     20  N   UNL     1     -12.083  12.633  64.754  0.00  0.00    -0.267 NA
ATOM     21  C   UNL     1     -12.358  12.063  63.439  0.00  0.00    +0.090 C 
ENDBRANCH  18  20
ENDBRANCH  17  18
ENDBRANCH  16  17
ENDBRANCH  14  16
ENDBRANCH   1  14
TORSDOF 7
ENDMDL
MODEL 5
REMARK VINA RESULT:      -5.5      2.824      5.431
REMARK  Name = 
REMARK  7 active torsions:
REMARK  status: ('A' for Active; 'I' for Inactive)
REMARK    1  A    between atoms: N_2  and  C_4
REMARK    2  A    between atoms: C_4  and  C_5
REMARK    3  A    between atoms: C_5  and  O_6
REMARK    4  A    between atoms: O_6  and  C_7
REMARK    5  A    between atoms: C_7  and  C_9
REMARK    6  A    between atoms: C_9  and  C_10
REMARK    7  A    between atoms: C_9  and  C_16
REMARK                            x       y       z     vdW  Elec       q    Type
REMARK                         _______ _______ _______ _____ _____    ______ ____
ROOT
ATOM      1  C   UNL     1     -10.444  14.979  69.222  0.00  0.00    +0.149 C 
ENDROOT
BRANCH   1   2
ATOM      2  C   UNL     1     -11.027  13.739  68.330  0.00  0.00    -0.010 A 
ATOM      3  C   UNL     1     -10.007  12.797  68.234  0.00  0.00    -0.004 A 
ATOM      4  C   UNL     1      -9.936  11.970  67.118  0.00  0.00    -0.000 A 
ATOM      5  C   UNL     1     -10.944  12.087  66.169  0.00  0.00    -0.000 A 
ATOM      6  C   UNL     1     -11.982  12.952  66.362  0.00  0.00    -0.000 A 
ATOM      7  C   UNL     1     -11.733  14.013  67.227  0.00  0.00    -0.004 A 
ENDBRANCH   1   2
BRANCH   1   8
ATOM      8  C   UNL     1     -11.823  15.101  70.145  0.00  0.00    +0.140 C 
ATOM      9  C   UNL     1     -11.429  15.846  71.375  0.00  0.00    +0.031 C 
ATOM     10  C   UNL     1     -12.293  15.224  72.448  0.00  0.00    +0.003 C 
ATOM     11  C   UNL     1     -12.922  13.990  71.868  0.00  0.00    +0.003 C 
ATOM     12  C   UNL     1     -12.340  13.796  70.480  0.00  0.00    +0.031 C 
ATOM     13  O   UNL     1     -12.664  15.926  69.390  0.00  0.00    -0.225 OA
ENDBRANCH   1   8
BRANCH   1  14
ATOM     14  C   UNL     1     -10.891  16.146  68.152  0.00  0.00    +0.323 C 
ATOM     15  O   UNL     1     -10.217  16.062  67.077  0.00  0.00    -0.250 OA
BRANCH  14  16
ATOM     16  O   UNL     1     -10.869  17.422  68.732  0.00  0.00    -0.447 OA
BRANCH  16  17
ATOM     17  C   UNL     1      -9.759  18.301  68.551  0.00  0.00    +0.226 C 
BRANCH  17  18
ATOM     18  C   UNL     1     -10.241  19.620  67.953  0.00  0.00    +0.120 C 
BRANCH  18  20
ATOM     19  C   UNL     1     -10.469  19.654  66.052  0.00  0.00    +0.090 C 
ATOM     20  N   UNL     1     -10.001  19.515  66.521  0.00  0.00    -0.267 NA
ATOM     21  C   UNL     1      -8.573  19.345  66.273  0.00  0.00    +0.090 C 
ENDBRANCH  18  20
ENDBRANCH  17  18
ENDBRANCH  16  17
ENDBRANCH  14  16
ENDBRANCH   1  14
TORSDOF 7
ENDMDL
MODEL 6
REMARK VINA RESULT:      -5.5      1.676      2.078
REMARK  Name = 
REMARK  7 active torsions:
REMARK  status: ('A' for Active; 'I' for Inactive)
REMARK    1  A    between atoms: N_2  and  C_4
REMARK    2  A    between atoms: C_4  and  C_5
REMARK    3  A    between atoms: C_5  and  O_6
REMARK    4  A    between atoms: O_6  and  C_7
REMARK    5  A    between atoms: C_7  and  C_9
REMARK    6  A    between atoms: C_9  and  C_10
REMARK    7  A    between atoms: C_9  and  C_16
REMARK                            x       y       z     vdW  Elec       q    Type
REMARK                         _______ _______ _______ _____ _____    ______ ____
ROOT
ATOM      1  C   UNL     1     -12.123  13.444  67.069  0.00  0.00    +0.149 C 
ENDROOT
BRANCH   1   2
ATOM      2  C   UNL     1     -11.371  13.000  65.686  0.00  0.00    -0.010 A 
ATOM      3  C   UNL     1     -12.335  13.014  64.682  0.00  0.00    -0.004 A 
ATOM      4  C   UNL     1     -12.208  12.156  63.594  0.00  0.00    -0.000 A 
ATOM      5  C   UNL     1     -11.071  11.359  63.536  0.00  0.00    -0.000 A 
ATOM      6  C   UNL     1     -10.102  11.461  64.492  0.00  0.00    -0.000 A 
ATOM      7  C   UNL     1     -10.514  11.973  65.719  0.00  0.00    -0.004 A 
ENDBRANCH   1   2
BRANCH   1   8
ATOM      8  C   UNL     1     -10.900  14.475  67.526  0.00  0.00    +0.140 C 
ATOM      9  C   UNL     1     -10.655  15.366  66.355  0.00  0.00    +0.031 C 
ATOM     10  C   UNL     1      -9.165  15.615  66.415  0.00  0.00    +0.003 C 
ATOM     11  C   UNL     1      -8.583  14.657  67.414  0.00  0.00    +0.003 C 
ATOM     12  C   UNL     1      -9.704  13.742  67.870  0.00  0.00    +0.031 C 
ATOM     13  O   UNL     1     -11.470  15.246  68.545  0.00  0.00    -0.225 OA
ENDBRANCH   1   8
BRANCH   1  14
ATOM     14  C   UNL     1     -11.566  12.171  67.949  0.00  0.00    +0.323 C 
ATOM     15  O   UNL     1     -11.973  11.068  67.463  0.00  0.00    -0.250 OA
BRANCH  14  16
ATOM     16  O   UNL     1     -11.841  12.320  69.315  0.00  0.00    -0.447 OA
BRANCH  16  17
ATOM     17  C   UNL     1     -11.669  11.238  70.230  0.00  0.00    +0.226 C 
BRANCH  17  18
ATOM     18  C   UNL     1     -12.841  11.202  71.208  0.00  0.00    +0.120 C 
BRANCH  18  20
ATOM     19  C   UNL     1     -13.387   9.546  72.000  0.00  0.00    +0.090 C 
ATOM     20  N   UNL     1     -12.830   9.867  71.788  0.00  0.00    -0.267 NA
ATOM     21  C   UNL     1     -11.522   9.254  71.588  0.00  0.00    +0.090 C 
ENDBRANCH  18  20
ENDBRANCH  17  18
ENDBRANCH  16  17
ENDBRANCH  14  16
ENDBRANCH   1  14
TORSDOF 7
ENDMDL
MODEL 7
REMARK VINA RESULT:      -5.4      2.730      4.720
REMARK  Name = 
REMARK  7 active torsions:
REMARK  status: ('A' for Active; 'I' for Inactive)
REMARK    1  A    between atoms: N_2  and  C_4
REMARK    2  A    between atoms: C_4  and  C_5
REMARK    3  A    between atoms: C_5  and  O_6
REMARK    4  A    between atoms: O_6  and  C_7
REMARK    5  A    between atoms: C_7  and  C_9
REMARK    6  A    between atoms: C_9  and  C_10
REMARK    7  A    between atoms: C_9  and  C_16
REMARK                            x       y       z     vdW  Elec       q    Type
REMARK                         _______ _______ _______ _____ _____    ______ ____
ROOT
ATOM      1  C   UNL     1     -11.250  14.119  66.649  0.00  0.00    +0.149 C 
ENDROOT
BRANCH   1   2
ATOM      2  C   UNL     1     -11.123  12.538  67.047  0.00  0.00    -0.010 A 
ATOM      3  C   UNL     1     -11.855  12.357  68.217  0.00  0.00    -0.004 A 
ATOM      4  C   UNL     1     -11.485  11.360  69.114  0.00  0.00    -0.000 A 
ATOM      5  C   UNL     1     -10.420  10.541  68.758  0.00  0.00    -0.000 A 
ATOM      6  C   UNL     1      -9.803  10.691  67.550  0.00  0.00    -0.000 A 
ATOM      7  C   UNL     1      -9.927  11.944  66.958  0.00  0.00    -0.004 A 
ENDBRANCH   1   2
BRANCH   1   8
ATOM      8  C   UNL     1     -11.503  13.799  65.036  0.00  0.00    +0.140 C 
ATOM      9  C   UNL     1     -12.694  12.902  64.978  0.00  0.00    +0.031 C 
ATOM     10  C   UNL     1     -12.390  12.001  63.802  0.00  0.00    +0.003 C 
ATOM     11  C   UNL     1     -10.954  12.217  63.422  0.00  0.00    +0.003 C 
ATOM     12  C   UNL     1     -10.351  13.160  64.446  0.00  0.00    +0.031 C 
ATOM     13  O   UNL     1     -11.868  15.039  64.499  0.00  0.00    -0.225 OA
ENDBRANCH   1   8
BRANCH   1  14
ATOM     14  C   UNL     1      -9.630  14.356  66.489  0.00  0.00    +0.323 C 
ATOM     15  O   UNL     1      -9.054  14.351  67.624  0.00  0.00    -0.250 OA
BRANCH  14  16
ATOM     16  O   UNL     1      -9.343  15.491  65.717  0.00  0.00    -0.447 OA
BRANCH  16  17
ATOM     17  C   UNL     1      -8.992  16.733  66.326  0.00  0.00    +0.226 C 
BRANCH  17  18
ATOM     18  C   UNL     1     -10.200  17.665  66.324  0.00  0.00    +0.120 C 
BRANCH  18  20
ATOM     19  C   UNL     1     -10.335  17.683  68.234  0.00  0.00    +0.090 C 
ATOM     20  N   UNL     1     -10.364  18.101  67.703  0.00  0.00    -0.267 NA
ATOM     21  C   UNL     1     -10.322  19.558  67.767  0.00  0.00    +0.090 C 
ENDBRANCH  18  20
ENDBRANCH  17  18
ENDBRANCH  16  17
ENDBRANCH  14  16
ENDBRANCH   1  14
TORSDOF 7
ENDMDL
MODEL 8
REMARK VINA RESULT:      -5.4      2.265      6.217
REMARK  Name = 
REMARK  7 active torsions:
REMARK  status: ('A' for Active; 'I' for Inactive)
REMARK    1  A    between atoms: N_2  and  C_4
REMARK    2  A    between atoms: C_4  and  C_5
REMARK    3  A    between atoms: C_5  and  O_6
REMARK    4  A    between atoms: O_6  and  C_7
REMARK    5  A    between atoms: C_7  and  C_9
REMARK    6  A    between atoms: C_9  and  C_10
REMARK    7  A    between atoms: C_9  and  C_16
REMARK                            x       y       z     vdW  Elec       q    Type
REMARK                         _______ _______ _______ _____ _____    ______ ____
ROOT
ATOM      1  C   UNL     1     -12.360  14.341  68.990  0.00  0.00    +0.149 C 
ENDROOT
BRANCH   1   2
ATOM      2  C   UNL     1     -12.436  14.467  70.618  0.00  0.00    -0.010 A 
ATOM      3  C   UNL     1     -13.776  14.653  70.946  0.00  0.00    -0.004 A 
ATOM      4  C   UNL     1     -14.112  15.368  72.090  0.00  0.00    -0.000 A 
ATOM      5  C   UNL     1     -13.071  15.815  72.896  0.00  0.00    -0.000 A 
ATOM      6  C   UNL     1     -11.777  15.514  72.587  0.00  0.00    -0.000 A 
ATOM      7  C   UNL     1     -11.526  15.217  71.251  0.00  0.00    -0.004 A 
ENDBRANCH   1   2
BRANCH   1   8
ATOM      8  C   UNL     1     -11.424  12.966  69.036  0.00  0.00    +0.140 C 
ATOM      9  C   UNL     1     -11.604  12.302  67.713  0.00  0.00    +0.031 C 
ATOM     10  C   UNL     1     -11.531  10.830  68.051  0.00  0.00    +0.003 C 
ATOM     11  C   UNL     1     -11.599  10.703  69.546  0.00  0.00    +0.003 C 
ATOM     12  C   UNL     1     -11.837  12.092  70.108  0.00  0.00    +0.031 C 
ATOM     13  O   UNL     1     -10.112  13.451  69.103  0.00  0.00    -0.225 OA
ENDBRANCH   1   8
BRANCH   1  14
ATOM     14  C   UNL     1     -11.086  15.368  68.827  0.00  0.00    +0.323 C 
ATOM     15  O   UNL     1     -11.449  16.576  69.000  0.00  0.00    -0.250 OA
BRANCH  14  16
ATOM     16  O   UNL     1     -10.393  15.155  67.627  0.00  0.00    -0.447 OA
BRANCH  16  17
ATOM     17  C   UNL     1     -10.880  15.668  66.387  0.00  0.00    +0.226 C 
BRANCH  17  18
ATOM     18  C   UNL     1     -10.407  14.778  65.241  0.00  0.00    +0.120 C 
BRANCH  18  20
ATOM     19  C   UNL     1     -12.192  14.551  64.587  0.00  0.00    +0.090 C 
ATOM     20  N   UNL     1     -11.613  14.208  64.659  0.00  0.00    -0.267 NA
ATOM     21  C   UNL     1     -11.298  12.931  64.028  0.00  0.00    +0.090 C 
ENDBRANCH  18  20
ENDBRANCH  17  18
ENDBRANCH  16  17
ENDBRANCH  14  16
ENDBRANCH   1  14
TORSDOF 7
ENDMDL
MODEL 9
REMARK VINA RESULT:      -5.4      3.244      6.022
REMARK  Name = 
REMARK  7 active torsions:
REMARK  status: ('A' for Active; 'I' for Inactive)
REMARK    1  A    between atoms: N_2  and  C_4
REMARK    2  A    between atoms: C_4  and  C_5
REMARK    3  A    between atoms: C_5  and  O_6
REMARK    4  A    between atoms: O_6  and  C_7
REMARK    5  A    between atoms: C_7  and  C_9
REMARK    6  A    between atoms: C_9  and  C_10
REMARK    7  A    between atoms: C_9  and  C_16
REMARK                            x       y       z     vdW  Elec       q    Type
REMARK                         _______ _______ _______ _____ _____    ______ ____
ROOT
ATOM      1  C   UNL     1     -10.576  16.103  67.194  0.00  0.00    +0.149 C 
ENDROOT
BRANCH   1   2
ATOM      2  C   UNL     1      -9.620  17.415  67.389  0.00  0.00    -0.010 A 
ATOM      3  C   UNL     1     -10.396  18.390  68.010  0.00  0.00    -0.004 A 
ATOM      4  C   UNL     1     -10.124  19.735  67.782  0.00  0.00    -0.000 A 
ATOM      5  C   UNL     1      -9.033  20.041  66.978  0.00  0.00    -0.000 A 
ATOM      6  C   UNL     1      -8.238  19.049  66.480  0.00  0.00    -0.000 A 
ATOM      7  C   UNL     1      -8.830  17.794  66.378  0.00  0.00    -0.004 A 
ENDBRANCH   1   2
BRANCH   1   8
ATOM      8  C   UNL     1      -9.416  15.047  67.747  0.00  0.00    +0.140 C 
ATOM      9  C   UNL     1      -9.043  15.523  69.111  0.00  0.00    +0.031 C 
ATOM     10  C   UNL     1      -7.570  15.194  69.202  0.00  0.00    +0.003 C 
ATOM     11  C   UNL     1      -7.102  14.817  67.826  0.00  0.00    +0.003 C 
ATOM     12  C   UNL     1      -8.265  15.037  66.876  0.00  0.00    +0.031 C 
ATOM     13  O   UNL     1     -10.100  13.834  67.885  0.00  0.00    -0.225 OA
ENDBRANCH   1   8
BRANCH   1  14
ATOM     14  C   UNL     1     -10.207  15.892  65.605  0.00  0.00    +0.323 C 
ATOM     15  O   UNL     1     -10.720  16.813  64.892  0.00  0.00    -0.250 OA
BRANCH  14  16
ATOM     16  O   UNL     1     -10.519  14.599  65.164  0.00  0.00    -0.447 OA
BRANCH  16  17
ATOM     17  C   UNL     1     -11.842  14.252  64.756  0.00  0.00    +0.226 C 
BRANCH  17  18
ATOM     18  C   UNL     1     -12.137  12.806  65.145  0.00  0.00    +0.120 C 
BRANCH  18  20
ATOM     19  C   UNL     1     -12.404  12.124  63.376  0.00  0.00    +0.090 C 
ATOM     20  N   UNL     1     -12.010  12.032  63.919  0.00  0.00    -0.267 NA
ATOM     21  C   UNL     1     -10.772  11.261  63.950  0.00  0.00    +0.090 C 
ENDBRANCH  18  20
ENDBRANCH  17  18
ENDBRANCH  16  17
ENDBRANCH  14  16
ENDBRANCH   1  14
TORSDOF 7
ENDMDL
