MODEL 1
REMARK VINA RESULT:      -6.5      0.000      0.000
REMARK  Name = 
REMARK  2 active torsions:
REMARK  status: ('A' for Active; 'I' for Inactive)
REMARK    1  A    between atoms: C_4  and  C_5
REMARK    2  A    between atoms: C_5  and  N_6
REMARK                            x       y       z     vdW  Elec       q    Type
REMARK                         _______ _______ _______ _____ _____    ______ ____
ROOT
ATOM      1  N   UNL     1     -11.398  14.334  68.588  0.00  0.00    -0.270 NA
ATOM      2  C   UNL     1      -9.869  13.927  68.716  0.00  0.00    +0.062 C 
ATOM      3  C   UNL     1      -9.552  13.831  67.009  0.00  0.00    +0.019 C 
ATOM      4  C   UNL     1     -10.580  14.968  66.477  0.00  0.00    +0.021 C 
ATOM      5  C   UNL     1     -10.368  16.246  67.004  0.00  0.00    -0.023 A 
ATOM      6  C   UNL     1     -10.190  16.408  68.348  0.00  0.00    -0.025 A 
ATOM      7  C   UNL     1     -10.187  17.694  68.842  0.00  0.00    -0.001 A 
ATOM      8  C   UNL     1     -10.208  18.806  68.006  0.00  0.00    +0.042 A 
ATOM      9  C   UNL     1     -10.343  18.652  66.638  0.00  0.00    +0.195 A 
ATOM     10  O   UNL     1     -10.327  19.714  65.742  0.00  0.00    -0.287 OA
ATOM     11  C   UNL     1     -10.516  17.360  66.178  0.00  0.00    +0.037 A 
ATOM     12  C   UNL     1     -10.066  14.984  65.035  0.00  0.00    +0.004 C 
ATOM     13  C   UNL     1     -11.937  14.371  66.383  0.00  0.00    +0.021 C 
ATOM     14  C   UNL     1      -8.264  14.849  67.002  0.00  0.00    +0.002 C 
ATOM     15  C   UNL     1      -9.300  15.450  68.957  0.00  0.00    +0.042 C 
ATOM     16  C   UNL     1     -11.931  13.412  67.576  0.00  0.00    +0.073 C 
ENDROOT
BRANCH   1  17
ATOM     17  C   UNL     1     -11.873  13.723  69.830  0.00  0.00    +0.098 C 
BRANCH  17  20
ATOM     18  C   UNL     1     -11.798  16.158  71.917  0.00  0.00    +0.026 C 
ATOM     19  C   UNL     1     -12.852  15.159  71.619  0.00  0.00    -0.047 C 
ATOM     20  C   UNL     1     -12.925  14.473  70.500  0.00  0.00    -0.017 C 
ATOM     21  C   UNL     1     -14.163  15.385  72.319  0.00  0.00    +0.026 C 
ENDBRANCH  17  20
ENDBRANCH   1  17
TORSDOF 2
ENDMDL
MODEL 2
REMARK VINA RESULT:      -6.4      2.440      4.755
REMARK  Name = 
REMARK  2 active torsions:
REMARK  status: ('A' for Active; 'I' for Inactive)
REMARK    1  A    between atoms: C_4  and  C_5
REMARK    2  A    between atoms: C_5  and  N_6
REMARK                            x       y       z     vdW  Elec       q    Type
REMARK                         _______ _______ _______ _____ _____    ______ ____
ROOT
ATOM      1  N   UNL     1     -10.399  15.748  68.410  0.00  0.00    -0.270 NA
ATOM      2  C   UNL     1      -8.943  15.245  68.030  0.00  0.00    +0.062 C 
ATOM      3  C   UNL     1      -9.181  13.588  68.501  0.00  0.00    +0.019 C 
ATOM      4  C   UNL     1     -10.763  13.437  68.172  0.00  0.00    +0.021 C 
ATOM      5  C   UNL     1     -11.114  13.686  66.841  0.00  0.00    -0.023 A 
ATOM      6  C   UNL     1     -10.636  14.797  66.207  0.00  0.00    -0.025 A 
ATOM      7  C   UNL     1     -11.166  15.105  64.973  0.00  0.00    -0.001 A 
ATOM      8  C   UNL     1     -12.040  14.250  64.310  0.00  0.00    +0.042 A 
ATOM      9  C   UNL     1     -12.496  13.098  64.926  0.00  0.00    +0.195 A 
ATOM     10  O   UNL     1     -13.334  12.178  64.307  0.00  0.00    -0.287 OA
ATOM     11  C   UNL     1     -12.086  12.894  66.231  0.00  0.00    +0.037 A 
ATOM     12  C   UNL     1     -10.825  11.922  68.379  0.00  0.00    +0.004 C 
ATOM     13  C   UNL     1     -11.537  14.001  69.307  0.00  0.00    +0.021 C 
ATOM     14  C   UNL     1      -8.718  12.921  67.074  0.00  0.00    +0.002 C 
ATOM     15  C   UNL     1      -9.234  15.057  66.423  0.00  0.00    +0.042 C 
ATOM     16  C   UNL     1     -10.644  15.167  69.737  0.00  0.00    +0.073 C 
ENDROOT
BRANCH   1  17
ATOM     17  C   UNL     1     -10.053  17.130  68.747  0.00  0.00    +0.098 C 
BRANCH  17  20
ATOM     18  C   UNL     1      -8.327  18.586  66.470  0.00  0.00    +0.026 C 
ATOM     19  C   UNL     1      -9.617  18.952  67.101  0.00  0.00    -0.047 C 
ATOM     20  C   UNL     1     -10.404  18.101  67.722  0.00  0.00    -0.017 C 
ATOM     21  C   UNL     1     -10.310  20.141  66.497  0.00  0.00    +0.026 C 
ENDBRANCH  17  20
ENDBRANCH   1  17
TORSDOF 2
ENDMDL
MODEL 3
REMARK VINA RESULT:      -6.4      2.566      3.847
REMARK  Name = 
REMARK  2 active torsions:
REMARK  status: ('A' for Active; 'I' for Inactive)
REMARK    1  A    between atoms: C_4  and  C_5
REMARK    2  A    between atoms: C_5  and  N_6
REMARK                            x       y       z     vdW  Elec       q    Type
REMARK                         _______ _______ _______ _____ _____    ______ ____
ROOT
ATOM      1  N   UNL     1     -11.735  14.385  68.779  0.00  0.00    -0.270 NA
ATOM      2  C   UNL     1     -10.193  14.710  68.596  0.00  0.00    +0.062 C 
ATOM      3  C   UNL     1      -9.660  13.060  68.469  0.00  0.00    +0.019 C 
ATOM      4  C   UNL     1     -10.969  12.405  67.768  0.00  0.00    +0.021 C 
ATOM      5  C   UNL     1     -11.318  12.966  66.534  0.00  0.00    -0.023 A 
ATOM      6  C   UNL     1     -11.376  14.323  66.396  0.00  0.00    -0.025 A 
ATOM      7  C   UNL     1     -11.916  14.823  65.231  0.00  0.00    -0.001 A 
ATOM      8  C   UNL     1     -12.253  14.001  64.161  0.00  0.00    +0.042 A 
ATOM      9  C   UNL     1     -12.156  12.625  64.275  0.00  0.00    +0.195 A 
ATOM     10  O   UNL     1     -12.433  11.748  63.234  0.00  0.00    -0.287 OA
ATOM     11  C   UNL     1     -11.774  12.136  65.511  0.00  0.00    +0.037 A 
ATOM     12  C   UNL     1     -10.330  11.044  67.479  0.00  0.00    +0.004 C 
ATOM     13  C   UNL     1     -11.980  12.128  68.820  0.00  0.00    +0.021 C 
ATOM     14  C   UNL     1      -8.859  13.232  67.047  0.00  0.00    +0.002 C 
ATOM     15  C   UNL     1     -10.271  15.036  66.986  0.00  0.00    +0.042 C 
ATOM     16  C   UNL     1     -11.757  13.304  69.774  0.00  0.00    +0.073 C 
ENDROOT
BRANCH   1  17
ATOM     17  C   UNL     1     -12.091  15.548  69.593  0.00  0.00    +0.098 C 
BRANCH  17  20
ATOM     18  C   UNL     1     -14.541  15.181  71.630  0.00  0.00    +0.026 C 
ATOM     19  C   UNL     1     -13.123  15.542  71.864  0.00  0.00    -0.047 C 
ATOM     20  C   UNL     1     -12.146  15.283  71.022  0.00  0.00    -0.017 C 
ATOM     21  C   UNL     1     -12.716  15.637  73.308  0.00  0.00    +0.026 C 
ENDBRANCH  17  20
ENDBRANCH   1  17
TORSDOF 2
ENDMDL
MODEL 4
REMARK VINA RESULT:      -6.3      2.471      4.945
REMARK  Name = 
REMARK  2 active torsions:
REMARK  status: ('A' for Active; 'I' for Inactive)
REMARK    1  A    between atoms: C_4  and  C_5
REMARK    2  A    between atoms: C_5  and  N_6
REMARK                            x       y       z     vdW  Elec       q    Type
REMARK                         _______ _______ _______ _____ _____    ______ ____
ROOT
ATOM      1  N   UNL     1     -10.479  16.983  67.824  0.00  0.00    -0.270 NA
ATOM      2  C   UNL     1      -9.014  16.407  67.618  0.00  0.00    +0.062 C 
ATOM      3  C   UNL     1      -9.262  14.929  68.500  0.00  0.00    +0.019 C 
ATOM      4  C   UNL     1     -10.836  14.688  68.190  0.00  0.00    +0.021 C 
ATOM      5  C   UNL     1     -11.158  14.579  66.833  0.00  0.00    -0.023 A 
ATOM      6  C   UNL     1     -10.668  15.489  65.941  0.00  0.00    -0.025 A 
ATOM      7  C   UNL     1     -11.172  15.460  64.659  0.00  0.00    -0.001 A 
ATOM      8  C   UNL     1     -12.031  14.457  64.224  0.00  0.00    +0.042 A 
ATOM      9  C   UNL     1     -12.500  13.503  65.110  0.00  0.00    +0.195 A 
ATOM     10  O   UNL     1     -13.323  12.448  64.736  0.00  0.00    -0.287 OA
ATOM     11  C   UNL     1     -12.117  13.649  66.431  0.00  0.00    +0.037 A 
ATOM     12  C   UNL     1     -10.901  13.279  68.784  0.00  0.00    +0.004 C 
ATOM     13  C   UNL     1     -11.635  15.524  69.123  0.00  0.00    +0.021 C 
ATOM     14  C   UNL     1      -8.768  13.916  67.307  0.00  0.00    +0.002 C 
ATOM     15  C   UNL     1      -9.271  15.805  66.110  0.00  0.00    +0.042 C 
ATOM     16  C   UNL     1     -10.751  16.767  69.251  0.00  0.00    +0.073 C 
ENDROOT
BRANCH   1  17
ATOM     17  C   UNL     1     -10.141  18.407  67.796  0.00  0.00    +0.098 C 
BRANCH  17  20
ATOM     18  C   UNL     1      -7.747  20.494  67.348  0.00  0.00    +0.026 C 
ATOM     19  C   UNL     1      -7.850  19.299  68.219  0.00  0.00    -0.047 C 
ATOM     20  C   UNL     1      -8.987  18.764  68.607  0.00  0.00    -0.017 C 
ATOM     21  C   UNL     1      -6.690  19.083  69.149  0.00  0.00    +0.026 C 
ENDBRANCH  17  20
ENDBRANCH   1  17
TORSDOF 2
ENDMDL
MODEL 5
REMARK VINA RESULT:      -6.0      2.934      4.754
REMARK  Name = 
REMARK  2 active torsions:
REMARK  status: ('A' for Active; 'I' for Inactive)
REMARK    1  A    between atoms: C_4  and  C_5
REMARK    2  A    between atoms: C_5  and  N_6
REMARK                            x       y       z     vdW  Elec       q    Type
REMARK                         _______ _______ _______ _____ _____    ______ ____
ROOT
ATOM      1  N   UNL     1     -10.621  15.177  69.570  0.00  0.00    -0.270 NA
ATOM      2  C   UNL     1     -11.606  15.294  68.332  0.00  0.00    +0.062 C 
ATOM      3  C   UNL     1     -10.434  14.881  67.114  0.00  0.00    +0.019 C 
ATOM      4  C   UNL     1      -9.497  13.871  67.971  0.00  0.00    +0.021 C 
ATOM      5  C   UNL     1     -10.160  12.757  68.497  0.00  0.00    -0.023 A 
ATOM      6  C   UNL     1     -11.348  12.917  69.151  0.00  0.00    -0.025 A 
ATOM      7  C   UNL     1     -11.859  11.827  69.823  0.00  0.00    -0.001 A 
ATOM      8  C   UNL     1     -11.285  10.564  69.725  0.00  0.00    +0.042 A 
ATOM      9  C   UNL     1     -10.104  10.382  69.027  0.00  0.00    +0.195 A 
ATOM     10  O   UNL     1      -9.501   9.142  68.851  0.00  0.00    -0.287 OA
ATOM     11  C   UNL     1      -9.517  11.519  68.503  0.00  0.00    +0.037 A 
ATOM     12  C   UNL     1      -8.665  13.381  66.784  0.00  0.00    +0.004 C 
ATOM     13  C   UNL     1      -8.551  14.678  68.783  0.00  0.00    +0.021 C 
ATOM     14  C   UNL     1     -11.298  13.663  66.432  0.00  0.00    +0.002 C 
ATOM     15  C   UNL     1     -12.279  13.804  68.499  0.00  0.00    +0.042 C 
ATOM     16  C   UNL     1      -9.413  15.893  69.137  0.00  0.00    +0.073 C 
ENDROOT
BRANCH   1  17
ATOM     17  C   UNL     1     -11.264  16.170  70.433  0.00  0.00    +0.098 C 
BRANCH  17  20
ATOM     18  C   UNL     1     -14.030  15.152  71.698  0.00  0.00    +0.026 C 
ATOM     19  C   UNL     1     -12.793  15.661  72.336  0.00  0.00    -0.047 C 
ATOM     20  C   UNL     1     -11.613  15.676  71.756  0.00  0.00    -0.017 C 
ATOM     21  C   UNL     1     -12.767  15.580  73.837  0.00  0.00    +0.026 C 
ENDBRANCH  17  20
ENDBRANCH   1  17
TORSDOF 2
ENDMDL
MODEL 6
REMARK VINA RESULT:      -5.9      1.332      2.101
REMARK  Name = 
REMARK  2 active torsions:
REMARK  status: ('A' for Active; 'I' for Inactive)
REMARK    1  A    between atoms: C_4  and  C_5
REMARK    2  A    between atoms: C_5  and  N_6
REMARK                            x       y       z     vdW  Elec       q    Type
REMARK                         _______ _______ _______ _____ _____    ______ ____
ROOT
ATOM      1  N   UNL     1     -11.470  14.160  68.519  0.00  0.00    -0.270 NA
ATOM      2  C   UNL     1      -9.950  13.717  68.618  0.00  0.00    +0.062 C 
ATOM      3  C   UNL     1      -9.647  13.683  66.905  0.00  0.00    +0.019 C 
ATOM      4  C   UNL     1     -10.656  14.860  66.428  0.00  0.00    +0.021 C 
ATOM      5  C   UNL     1     -10.414  16.112  67.004  0.00  0.00    -0.023 A 
ATOM      6  C   UNL     1     -10.222  16.216  68.352  0.00  0.00    -0.025 A 
ATOM      7  C   UNL     1     -10.189  17.481  68.896  0.00  0.00    -0.001 A 
ATOM      8  C   UNL     1     -10.194  18.626  68.105  0.00  0.00    +0.042 A 
ATOM      9  C   UNL     1     -10.343  18.530  66.733  0.00  0.00    +0.195 A 
ATOM     10  O   UNL     1     -10.312  19.626  65.880  0.00  0.00    -0.287 OA
ATOM     11  C   UNL     1     -10.546  17.261  66.224  0.00  0.00    +0.037 A 
ATOM     12  C   UNL     1     -10.154  14.924  64.983  0.00  0.00    +0.004 C 
ATOM     13  C   UNL     1     -12.026  14.295  66.323  0.00  0.00    +0.021 C 
ATOM     14  C   UNL     1      -8.339  14.674  66.928  0.00  0.00    +0.002 C 
ATOM     15  C   UNL     1      -9.347  15.217  68.914  0.00  0.00    +0.042 C 
ATOM     16  C   UNL     1     -12.030  13.289  67.476  0.00  0.00    +0.073 C 
ENDROOT
BRANCH   1  17
ATOM     17  C   UNL     1     -11.949  13.509  69.740  0.00  0.00    +0.098 C 
BRANCH  17  20
ATOM     18  C   UNL     1     -13.128  11.252  71.690  0.00  0.00    +0.026 C 
ATOM     19  C   UNL     1     -12.022  11.210  70.704  0.00  0.00    -0.047 C 
ATOM     20  C   UNL     1     -11.889  12.056  69.706  0.00  0.00    -0.017 C 
ATOM     21  C   UNL     1     -11.418   9.852  70.477  0.00  0.00    +0.026 C 
ENDBRANCH  17  20
ENDBRANCH   1  17
TORSDOF 2
ENDMDL
MODEL 7
REMARK VINA RESULT:      -5.8      3.942      5.167
REMARK  Name = 
REMARK  2 active torsions:
REMARK  status: ('A' for Active; 'I' for Inactive)
REMARK    1  A    between atoms: C_4  and  C_5
REMARK    2  A    between atoms: C_5  and  N_6
REMARK                            x       y       z     vdW  Elec       q    Type
REMARK                         _______ _______ _______ _____ _____    ______ ____
ROOT
ATOM      1  N   UNL     1     -10.268   9.773  68.763  0.00  0.00    -0.270 NA
ATOM      2  C   UNL     1      -8.839  10.463  68.721  0.00  0.00    +0.062 C 
ATOM      3  C   UNL     1      -8.436   9.975  67.101  0.00  0.00    +0.019 C 
ATOM      4  C   UNL     1      -9.920   9.961  66.445  0.00  0.00    +0.021 C 
ATOM      5  C   UNL     1     -10.599  11.183  66.499  0.00  0.00    -0.023 A 
ATOM      6  C   UNL     1     -10.641  11.889  67.667  0.00  0.00    -0.025 A 
ATOM      7  C   UNL     1     -11.483  12.977  67.725  0.00  0.00    -0.001 A 
ATOM      8  C   UNL     1     -12.158  13.450  66.605  0.00  0.00    +0.042 A 
ATOM      9  C   UNL     1     -12.087  12.767  65.403  0.00  0.00    +0.195 A 
ATOM     10  O   UNL     1     -12.698  13.206  64.235  0.00  0.00    -0.287 OA
ATOM     11  C   UNL     1     -11.373  11.583  65.410  0.00  0.00    +0.037 A 
ATOM     12  C   UNL     1      -9.453   9.767  65.001  0.00  0.00    +0.004 C 
ATOM     13  C   UNL     1     -10.581   8.679  66.800  0.00  0.00    +0.021 C 
ATOM     14  C   UNL     1      -8.090  11.477  66.536  0.00  0.00    +0.002 C 
ATOM     15  C   UNL     1      -9.381  11.973  68.364  0.00  0.00    +0.042 C 
ATOM     16  C   UNL     1     -10.035   8.433  68.208  0.00  0.00    +0.073 C 
ENDROOT
BRANCH   1  17
ATOM     17  C   UNL     1     -10.317   9.498  70.200  0.00  0.00    +0.098 C 
BRANCH  17  20
ATOM     18  C   UNL     1     -12.723  11.414  71.109  0.00  0.00    +0.026 C 
ATOM     19  C   UNL     1     -12.425   9.999  71.434  0.00  0.00    -0.047 C 
ATOM     20  C   UNL     1     -11.651   9.221  70.710  0.00  0.00    -0.017 C 
ATOM     21  C   UNL     1     -13.487   9.287  72.226  0.00  0.00    +0.026 C 
ENDBRANCH  17  20
ENDBRANCH   1  17
TORSDOF 2
ENDMDL
MODEL 8
REMARK VINA RESULT:      -5.7      3.013      4.166
REMARK  Name = 
REMARK  2 active torsions:
REMARK  status: ('A' for Active; 'I' for Inactive)
REMARK    1  A    between atoms: C_4  and  C_5
REMARK    2  A    between atoms: C_5  and  N_6
REMARK                            x       y       z     vdW  Elec       q    Type
REMARK                         _______ _______ _______ _____ _____    ______ ____
ROOT
ATOM      1  N   UNL     1      -9.291  16.740  68.700  0.00  0.00    -0.270 NA
ATOM      2  C   UNL     1      -8.535  16.254  67.392  0.00  0.00    +0.062 C 
ATOM      3  C   UNL     1      -8.690  17.747  66.513  0.00  0.00    +0.019 C 
ATOM      4  C   UNL     1      -8.656  18.795  67.752  0.00  0.00    +0.021 C 
ATOM      5  C   UNL     1      -7.501  18.738  68.539  0.00  0.00    -0.023 A 
ATOM      6  C   UNL     1      -7.030  17.531  68.971  0.00  0.00    -0.025 A 
ATOM      7  C   UNL     1      -6.015  17.539  69.903  0.00  0.00    -0.001 A 
ATOM      8  C   UNL     1      -5.376  18.712  70.289  0.00  0.00    +0.042 A 
ATOM      9  C   UNL     1      -5.817  19.938  69.823  0.00  0.00    +0.195 A 
ATOM     10  O   UNL     1      -5.199  21.143  70.132  0.00  0.00    -0.287 OA
ATOM     11  C   UNL     1      -6.944  19.922  69.023  0.00  0.00    +0.037 A 
ATOM     12  C   UNL     1      -8.552  20.056  66.890  0.00  0.00    +0.004 C 
ATOM     13  C   UNL     1     -10.014  18.863  68.351  0.00  0.00    +0.021 C 
ATOM     14  C   UNL     1      -7.094  17.933  66.180  0.00  0.00    +0.002 C 
ATOM     15  C   UNL     1      -7.014  16.498  67.965  0.00  0.00    +0.042 C 
ATOM     16  C   UNL     1     -10.491  17.418  68.190  0.00  0.00    +0.073 C 
ENDROOT
BRANCH   1  17
ATOM     17  C   UNL     1      -9.832  15.444  69.112  0.00  0.00    +0.098 C 
BRANCH  17  20
ATOM     18  C   UNL     1     -12.040  13.362  70.153  0.00  0.00    +0.026 C 
ATOM     19  C   UNL     1     -11.950  14.836  70.281  0.00  0.00    -0.047 C 
ATOM     20  C   UNL     1     -10.834  15.522  70.164  0.00  0.00    -0.017 C 
ATOM     21  C   UNL     1     -13.002  15.468  71.150  0.00  0.00    +0.026 C 
ENDBRANCH  17  20
ENDBRANCH   1  17
TORSDOF 2
ENDMDL
MODEL 9
REMARK VINA RESULT:      -5.7      2.575      4.881
REMARK  Name = 
REMARK  2 active torsions:
REMARK  status: ('A' for Active; 'I' for Inactive)
REMARK    1  A    between atoms: C_4  and  C_5
REMARK    2  A    between atoms: C_5  and  N_6
REMARK                            x       y       z     vdW  Elec       q    Type
REMARK                         _______ _______ _______ _____ _____    ______ ____
ROOT
ATOM      1  N   UNL     1      -8.953  14.625  67.477  0.00  0.00    -0.270 NA
ATOM      2  C   UNL     1      -9.940  14.888  66.262  0.00  0.00    +0.062 C 
ATOM      3  C   UNL     1     -10.664  13.307  66.256  0.00  0.00    +0.019 C 
ATOM      4  C   UNL     1     -10.574  12.961  67.839  0.00  0.00    +0.021 C 
ATOM      5  C   UNL     1     -11.235  13.865  68.677  0.00  0.00    -0.023 A 
ATOM      6  C   UNL     1     -11.053  15.208  68.509  0.00  0.00    -0.025 A 
ATOM      7  C   UNL     1     -11.560  16.047  69.478  0.00  0.00    -0.001 A 
ATOM      8  C   UNL     1     -12.361  15.579  70.514  0.00  0.00    +0.042 A 
ATOM      9  C   UNL     1     -12.589  14.223  70.668  0.00  0.00    +0.195 A 
ATOM     10  O   UNL     1     -13.413  13.691  71.651  0.00  0.00    -0.287 OA
ATOM     11  C   UNL     1     -11.932  13.385  69.786  0.00  0.00    +0.037 A 
ATOM     12  C   UNL     1     -11.433  11.696  67.773  0.00  0.00    +0.004 C 
ATOM     13  C   UNL     1      -9.205  12.468  68.137  0.00  0.00    +0.021 C 
ATOM     14  C   UNL     1     -12.222  13.817  66.352  0.00  0.00    +0.002 C 
ATOM     15  C   UNL     1     -11.100  15.654  67.139  0.00  0.00    +0.042 C 
ATOM     16  C   UNL     1      -8.361  13.314  67.181  0.00  0.00    +0.073 C 
ENDROOT
BRANCH   1  17
ATOM     17  C   UNL     1      -7.883  15.536  67.068  0.00  0.00    +0.098 C 
BRANCH  17  20
ATOM     18  C   UNL     1      -8.857  18.374  68.203  0.00  0.00    +0.026 C 
ATOM     19  C   UNL     1      -7.548  17.684  68.292  0.00  0.00    -0.047 C 
ATOM     20  C   UNL     1      -7.383  16.389  68.136  0.00  0.00    -0.017 C 
ATOM     21  C   UNL     1      -6.527  18.360  69.163  0.00  0.00    +0.026 C 
ENDBRANCH  17  20
ENDBRANCH   1  17
TORSDOF 2
ENDMDL
