MODEL 1
REMARK VINA RESULT:      -6.5      0.000      0.000
REMARK  Name = 
REMARK  8 active torsions:
REMARK  status: ('A' for Active; 'I' for Inactive)
REMARK    1  A    between atoms: C_2  and  C_3
REMARK    2  A    between atoms: C_2  and  N_11
REMARK    3  A    between atoms: C_3  and  C_4
REMARK    4  A    between atoms: C_4  and  C_5
REMARK    5  A    between atoms: N_11  and  C_12
REMARK    6  A    between atoms: C_12  and  C_13
REMARK    7  A    between atoms: C_13  and  C_15
REMARK    8  A    between atoms: C_20  and  C_21
REMARK                            x       y       z     vdW  Elec       q    Type
REMARK                         _______ _______ _______ _____ _____    ______ ____
ROOT
ATOM      1  C   UNL     1     -12.092  12.962  67.188  0.00  0.00    +0.126 C 
ENDROOT
BRANCH   1   2
ATOM      2  C   UNL     1     -11.750  12.827  65.556  0.00  0.00    +0.192 C 
ATOM      3  O   UNL     1     -12.886  13.799  65.187  0.00  0.00    -0.217 OA
BRANCH   2   4
ATOM      4  C   UNL     1     -10.672  14.064  65.631  0.00  0.00    +0.009 A 
ATOM      5  C   UNL     1     -11.137  15.105  66.434  0.00  0.00    +0.006 A 
ATOM      6  C   UNL     1     -10.172  15.958  66.955  0.00  0.00    +0.095 A 
ATOM      7  C   UNL     1      -8.853  15.530  67.035  0.00  0.00    +0.200 A 
ATOM      8  O   UNL     1      -7.821  16.410  67.341  0.00  0.00    -0.286 OA
ATOM      9  C   UNL     1      -8.645  14.174  66.956  0.00  0.00    +0.042 A 
ATOM     10  C   UNL     1      -9.504  13.476  66.113  0.00  0.00    +0.001 A 
BRANCH   6  11
ATOM     11  C   UNL     1     -10.348  17.417  66.970  0.00  0.00    +0.287 C 
ATOM     12  O   UNL     1     -10.889  17.954  67.985  0.00  0.00    -0.267 OA
ATOM     13  N   UNL     1     -10.444  18.000  65.665  0.00  0.00    -0.084 NA
ENDBRANCH   6  11
ENDBRANCH   2   4
ENDBRANCH   1   2
BRANCH   1  14
ATOM     14  N   UNL     1     -11.953  11.550  67.551  0.00  0.00    -0.216 NA
BRANCH  14  16
ATOM     15  C   UNL     1     -12.119  10.614  69.694  0.00  0.00    +0.019 C 
ATOM     16  C   UNL     1     -11.053  11.573  68.862  0.00  0.00    +0.073 C 
BRANCH  16  17
ATOM     17  C   UNL     1     -11.722  12.965  69.459  0.00  0.00    +0.022 C 
BRANCH  17  18
ATOM     18  C   UNL     1     -12.423  12.641  70.719  0.00  0.00    +0.028 C 
BRANCH  18  19
ATOM     19  C   UNL     1     -12.736  13.926  71.392  0.00  0.00    -0.022 A 
ATOM     20  C   UNL     1     -11.737  14.892  71.461  0.00  0.00    -0.004 A 
ATOM     21  C   UNL     1     -11.783  15.693  72.598  0.00  0.00    -0.000 A 
ATOM     22  C   UNL     1     -13.051  16.018  73.027  0.00  0.00    -0.000 A 
ATOM     23  C   UNL     1     -14.194  15.418  72.513  0.00  0.00    -0.000 A 
ATOM     24  C   UNL     1     -14.005  14.326  71.726  0.00  0.00    -0.004 A 
ENDBRANCH  18  19
ENDBRANCH  17  18
ENDBRANCH  16  17
ENDBRANCH  14  16
ENDBRANCH   1  14
TORSDOF 8
ENDMDL
MODEL 2
REMARK VINA RESULT:      -6.5      2.203      4.711
REMARK  Name = 
REMARK  8 active torsions:
REMARK  status: ('A' for Active; 'I' for Inactive)
REMARK    1  A    between atoms: C_2  and  C_3
REMARK    2  A    between atoms: C_2  and  N_11
REMARK    3  A    between atoms: C_3  and  C_4
REMARK    4  A    between atoms: C_4  and  C_5
REMARK    5  A    between atoms: N_11  and  C_12
REMARK    6  A    between atoms: C_12  and  C_13
REMARK    7  A    between atoms: C_13  and  C_15
REMARK    8  A    between atoms: C_20  and  C_21
REMARK                            x       y       z     vdW  Elec       q    Type
REMARK                         _______ _______ _______ _____ _____    ______ ____
ROOT
ATOM      1  C   UNL     1     -11.680  15.093  70.078  0.00  0.00    +0.126 C 
ENDROOT
BRANCH   1   2
ATOM      2  C   UNL     1     -11.611  15.793  68.560  0.00  0.00    +0.192 C 
ATOM      3  O   UNL     1     -10.075  15.690  68.527  0.00  0.00    -0.217 OA
BRANCH   2   4
ATOM      4  C   UNL     1     -11.757  14.330  67.827  0.00  0.00    +0.009 A 
ATOM      5  C   UNL     1     -11.757  14.448  66.438  0.00  0.00    +0.006 A 
ATOM      6  C   UNL     1     -11.400  13.310  65.724  0.00  0.00    +0.095 A 
ATOM      7  C   UNL     1     -10.676  12.307  66.355  0.00  0.00    +0.200 A 
ATOM      8  O   UNL     1     -10.483  11.065  65.759  0.00  0.00    -0.286 OA
ATOM      9  C   UNL     1     -10.030  12.657  67.516  0.00  0.00    +0.042 A 
ATOM     10  C   UNL     1     -10.684  13.588  68.317  0.00  0.00    +0.001 A 
BRANCH   6  11
ATOM     11  C   UNL     1     -12.136  12.878  64.527  0.00  0.00    +0.287 C 
ATOM     12  O   UNL     1     -13.285  12.361  64.673  0.00  0.00    -0.267 OA
ATOM     13  N   UNL     1     -11.290  12.541  63.421  0.00  0.00    -0.084 NA
ENDBRANCH   6  11
ENDBRANCH   2   4
ENDBRANCH   1   2
BRANCH   1  14
ATOM     14  N   UNL     1     -12.697  15.966  70.668  0.00  0.00    -0.216 NA
BRANCH  14  16
ATOM     15  C   UNL     1     -13.625  15.531  72.776  0.00  0.00    +0.019 C 
ATOM     16  C   UNL     1     -13.794  14.960  71.229  0.00  0.00    +0.073 C 
BRANCH  16  17
ATOM     17  C   UNL     1     -12.722  13.725  71.487  0.00  0.00    +0.022 C 
BRANCH  17  18
ATOM     18  C   UNL     1     -13.464  12.574  72.045  0.00  0.00    +0.028 C 
BRANCH  18  19
ATOM     19  C   UNL     1     -12.858  11.343  71.478  0.00  0.00    -0.022 A 
ATOM     20  C   UNL     1     -13.325  10.113  71.928  0.00  0.00    -0.004 A 
ATOM     21  C   UNL     1     -12.368   9.103  71.954  0.00  0.00    -0.000 A 
ATOM     22  C   UNL     1     -11.470   9.130  70.910  0.00  0.00    -0.000 A 
ATOM     23  C   UNL     1     -11.377  10.199  70.027  0.00  0.00    -0.000 A 
ATOM     24  C   UNL     1     -12.053  11.328  70.368  0.00  0.00    -0.004 A 
ENDBRANCH  18  19
ENDBRANCH  17  18
ENDBRANCH  16  17
ENDBRANCH  14  16
ENDBRANCH   1  14
TORSDOF 8
ENDMDL
MODEL 3
REMARK VINA RESULT:      -6.4      2.986      6.298
REMARK  Name = 
REMARK  8 active torsions:
REMARK  status: ('A' for Active; 'I' for Inactive)
REMARK    1  A    between atoms: C_2  and  C_3
REMARK    2  A    between atoms: C_2  and  N_11
REMARK    3  A    between atoms: C_3  and  C_4
REMARK    4  A    between atoms: C_4  and  C_5
REMARK    5  A    between atoms: N_11  and  C_12
REMARK    6  A    between atoms: C_12  and  C_13
REMARK    7  A    between atoms: C_13  and  C_15
REMARK    8  A    between atoms: C_20  and  C_21
REMARK                            x       y       z     vdW  Elec       q    Type
REMARK                         _______ _______ _______ _____ _____    ______ ____
ROOT
ATOM      1  C   UNL     1     -10.238  14.999  68.126  0.00  0.00    +0.126 C 
ENDROOT
BRANCH   1   2
ATOM      2  C   UNL     1     -10.224  16.292  69.188  0.00  0.00    +0.192 C 
ATOM      3  O   UNL     1     -11.637  16.726  68.757  0.00  0.00    -0.217 OA
BRANCH   2   4
ATOM      4  C   UNL     1     -10.842  15.367  70.397  0.00  0.00    +0.009 A 
ATOM      5  C   UNL     1     -11.899  16.004  71.043  0.00  0.00    +0.006 A 
ATOM      6  C   UNL     1     -12.787  15.182  71.727  0.00  0.00    +0.095 A 
ATOM      7  C   UNL     1     -12.857  13.833  71.403  0.00  0.00    +0.200 A 
ATOM      8  O   UNL     1     -13.561  12.932  72.194  0.00  0.00    -0.286 OA
ATOM      9  C   UNL     1     -12.335  13.469  70.185  0.00  0.00    +0.042 A 
ATOM     10  C   UNL     1     -11.214  14.180  69.769  0.00  0.00    +0.001 A 
BRANCH   6  11
ATOM     11  C   UNL     1     -13.289  15.520  73.066  0.00  0.00    +0.287 C 
ATOM     12  O   UNL     1     -14.226  16.370  73.168  0.00  0.00    -0.267 OA
ATOM     13  N   UNL     1     -12.325  15.331  74.108  0.00  0.00    -0.084 NA
ENDBRANCH   6  11
ENDBRANCH   2   4
ENDBRANCH   1   2
BRANCH   1  14
ATOM     14  N   UNL     1     -10.381  15.752  66.878  0.00  0.00    -0.216 NA
BRANCH  14  16
ATOM     15  C   UNL     1     -11.145  15.615  64.666  0.00  0.00    +0.019 C 
ATOM     16  C   UNL     1     -10.357  14.635  65.746  0.00  0.00    +0.073 C 
BRANCH  16  17
ATOM     17  C   UNL     1     -11.764  13.916  66.237  0.00  0.00    +0.022 C 
BRANCH  17  18
ATOM     18  C   UNL     1     -11.982  12.708  65.414  0.00  0.00    +0.028 C 
BRANCH  18  19
ATOM     19  C   UNL     1     -11.251  11.593  66.067  0.00  0.00    -0.022 A 
ATOM     20  C   UNL     1     -10.212  10.988  65.367  0.00  0.00    -0.004 A 
ATOM     21  C   UNL     1     -10.044   9.633  65.636  0.00  0.00    -0.000 A 
ATOM     22  C   UNL     1     -10.258   9.271  66.947  0.00  0.00    -0.000 A 
ATOM     23  C   UNL     1     -10.817  10.135  67.882  0.00  0.00    -0.000 A 
ATOM     24  C   UNL     1     -11.359  11.284  67.399  0.00  0.00    -0.004 A 
ENDBRANCH  18  19
ENDBRANCH  17  18
ENDBRANCH  16  17
ENDBRANCH  14  16
ENDBRANCH   1  14
TORSDOF 8
ENDMDL
MODEL 4
REMARK VINA RESULT:      -6.3      2.360      3.547
REMARK  Name = 
REMARK  8 active torsions:
REMARK  status: ('A' for Active; 'I' for Inactive)
REMARK    1  A    between atoms: C_2  and  C_3
REMARK    2  A    between atoms: C_2  and  N_11
REMARK    3  A    between atoms: C_3  and  C_4
REMARK    4  A    between atoms: C_4  and  C_5
REMARK    5  A    between atoms: N_11  and  C_12
REMARK    6  A    between atoms: C_12  and  C_13
REMARK    7  A    between atoms: C_13  and  C_15
REMARK    8  A    between atoms: C_20  and  C_21
REMARK                            x       y       z     vdW  Elec       q    Type
REMARK                         _______ _______ _______ _____ _____    ______ ____
ROOT
ATOM      1  C   UNL     1     -11.119  10.413  69.103  0.00  0.00    +0.126 C 
ENDROOT
BRANCH   1   2
ATOM      2  C   UNL     1      -9.677   9.966  68.381  0.00  0.00    +0.192 C 
ATOM      3  O   UNL     1     -10.398   9.001  67.422  0.00  0.00    -0.217 OA
BRANCH   2   4
ATOM      4  C   UNL     1      -9.791  11.188  67.289  0.00  0.00    +0.009 A 
ATOM      5  C   UNL     1     -11.037  11.208  66.666  0.00  0.00    +0.006 A 
ATOM      6  C   UNL     1     -11.426  12.419  66.106  0.00  0.00    +0.095 A 
ATOM      7  C   UNL     1     -10.823  13.595  66.536  0.00  0.00    +0.200 A 
ATOM      8  O   UNL     1     -11.015  14.797  65.863  0.00  0.00    -0.286 OA
ATOM      9  C   UNL     1     -10.166  13.540  67.741  0.00  0.00    +0.042 A 
ATOM     10  C   UNL     1      -9.524  12.339  68.028  0.00  0.00    +0.001 A 
BRANCH   6  11
ATOM     11  C   UNL     1     -12.056  12.499  64.781  0.00  0.00    +0.287 C 
ATOM     12  O   UNL     1     -13.321  12.577  64.712  0.00  0.00    -0.267 OA
ATOM     13  N   UNL     1     -11.279  11.902  63.736  0.00  0.00    -0.084 NA
ENDBRANCH   6  11
ENDBRANCH   2   4
ENDBRANCH   1   2
BRANCH   1  14
ATOM     14  N   UNL     1     -11.296   9.243  69.965  0.00  0.00    -0.216 NA
BRANCH  14  16
ATOM     15  C   UNL     1     -13.145   9.117  71.400  0.00  0.00    +0.019 C 
ATOM     16  C   UNL     1     -11.662   9.858  71.385  0.00  0.00    +0.073 C 
BRANCH  16  17
ATOM     17  C   UNL     1     -12.285  11.261  70.766  0.00  0.00    +0.022 C 
BRANCH  17  18
ATOM     18  C   UNL     1     -13.203  11.844  71.767  0.00  0.00    +0.028 C 
BRANCH  18  19
ATOM     19  C   UNL     1     -13.023  13.317  71.723  0.00  0.00    -0.022 A 
ATOM     20  C   UNL     1     -12.317  13.863  70.656  0.00  0.00    -0.004 A 
ATOM     21  C   UNL     1     -11.596  15.012  70.964  0.00  0.00    -0.000 A 
ATOM     22  C   UNL     1     -12.213  15.862  71.854  0.00  0.00    -0.000 A 
ATOM     23  C   UNL     1     -13.354  15.506  72.563  0.00  0.00    -0.000 A 
ATOM     24  C   UNL     1     -13.712  14.196  72.519  0.00  0.00    -0.004 A 
ENDBRANCH  18  19
ENDBRANCH  17  18
ENDBRANCH  16  17
ENDBRANCH  14  16
ENDBRANCH   1  14
TORSDOF 8
ENDMDL
MODEL 5
REMARK VINA RESULT:      -6.3      1.572      2.246
REMARK  Name = 
REMARK  8 active torsions:
REMARK  status: ('A' for Active; 'I' for Inactive)
REMARK    1  A    between atoms: C_2  and  C_3
REMARK    2  A    between atoms: C_2  and  N_11
REMARK    3  A    between atoms: C_3  and  C_4
REMARK    4  A    between atoms: C_4  and  C_5
REMARK    5  A    between atoms: N_11  and  C_12
REMARK    6  A    between atoms: C_12  and  C_13
REMARK    7  A    between atoms: C_13  and  C_15
REMARK    8  A    between atoms: C_20  and  C_21
REMARK                            x       y       z     vdW  Elec       q    Type
REMARK                         _______ _______ _______ _____ _____    ______ ____
ROOT
ATOM      1  C   UNL     1     -11.044  12.279  68.798  0.00  0.00    +0.126 C 
ENDROOT
BRANCH   1   2
ATOM      2  C   UNL     1     -10.648  12.021  67.194  0.00  0.00    +0.192 C 
ATOM      3  O   UNL     1     -12.092  11.613  66.850  0.00  0.00    -0.217 OA
BRANCH   2   4
ATOM      4  C   UNL     1     -10.965  13.587  66.813  0.00  0.00    +0.009 A 
ATOM      5  C   UNL     1      -9.793  14.325  66.653  0.00  0.00    +0.006 A 
ATOM      6  C   UNL     1      -9.896  15.483  65.891  0.00  0.00    +0.095 A 
ATOM      7  C   UNL     1     -10.956  15.627  65.006  0.00  0.00    +0.200 A 
ATOM      8  O   UNL     1     -11.225  16.842  64.386  0.00  0.00    -0.286 OA
ATOM      9  C   UNL     1     -11.620  14.476  64.655  0.00  0.00    +0.042 A 
ATOM     10  C   UNL     1     -11.733  13.513  65.653  0.00  0.00    +0.001 A 
BRANCH   6  11
ATOM     11  C   UNL     1      -9.257  16.743  66.298  0.00  0.00    +0.287 C 
ATOM     12  O   UNL     1      -8.214  17.122  65.683  0.00  0.00    -0.267 OA
ATOM     13  N   UNL     1      -9.500  17.097  67.664  0.00  0.00    -0.084 NA
ENDBRANCH   6  11
ENDBRANCH   2   4
ENDBRANCH   1   2
BRANCH   1  14
ATOM     14  N   UNL     1     -11.586  10.953  69.099  0.00  0.00    -0.216 NA
BRANCH  14  16
ATOM     15  C   UNL     1     -13.110   9.924  70.553  0.00  0.00    +0.019 C 
ATOM     16  C   UNL     1     -11.842  10.985  70.669  0.00  0.00    +0.073 C 
BRANCH  16  17
ATOM     17  C   UNL     1     -12.841  12.304  70.614  0.00  0.00    +0.022 C 
BRANCH  17  18
ATOM     18  C   UNL     1     -13.225  12.654  71.998  0.00  0.00    +0.028 C 
BRANCH  18  19
ATOM     19  C   UNL     1     -12.926  14.096  72.186  0.00  0.00    -0.022 A 
ATOM     20  C   UNL     1     -12.841  14.903  71.056  0.00  0.00    -0.004 A 
ATOM     21  C   UNL     1     -11.939  15.956  71.161  0.00  0.00    -0.000 A 
ATOM     22  C   UNL     1     -11.881  16.548  72.404  0.00  0.00    -0.000 A 
ATOM     23  C   UNL     1     -12.498  16.003  73.523  0.00  0.00    -0.000 A 
ATOM     24  C   UNL     1     -12.975  14.736  73.398  0.00  0.00    -0.004 A 
ENDBRANCH  18  19
ENDBRANCH  17  18
ENDBRANCH  16  17
ENDBRANCH  14  16
ENDBRANCH   1  14
TORSDOF 8
ENDMDL
MODEL 6
REMARK VINA RESULT:      -6.3      2.898      3.987
REMARK  Name = 
REMARK  8 active torsions:
REMARK  status: ('A' for Active; 'I' for Inactive)
REMARK    1  A    between atoms: C_2  and  C_3
REMARK    2  A    between atoms: C_2  and  N_11
REMARK    3  A    between atoms: C_3  and  C_4
REMARK    4  A    between atoms: C_4  and  C_5
REMARK    5  A    between atoms: N_11  and  C_12
REMARK    6  A    between atoms: C_12  and  C_13
REMARK    7  A    between atoms: C_13  and  C_15
REMARK    8  A    between atoms: C_20  and  C_21
REMARK                            x       y       z     vdW  Elec       q    Type
REMARK                         _______ _______ _______ _____ _____    ______ ____
ROOT
ATOM      1  C   UNL     1     -10.436  12.343  67.079  0.00  0.00    +0.126 C 
ENDROOT
BRANCH   1   2
ATOM      2  C   UNL     1     -11.838  12.774  67.882  0.00  0.00    +0.192 C 
ATOM      3  O   UNL     1     -11.043  13.446  69.016  0.00  0.00    -0.217 OA
BRANCH   2   4
ATOM      4  C   UNL     1     -11.930  14.194  67.061  0.00  0.00    +0.009 A 
ATOM      5  C   UNL     1     -10.684  14.811  66.959  0.00  0.00    +0.006 A 
ATOM      6  C   UNL     1     -10.534  15.726  65.924  0.00  0.00    +0.095 A 
ATOM      7  C   UNL     1     -11.395  15.674  64.836  0.00  0.00    +0.200 A 
ATOM      8  O   UNL     1     -11.429  16.690  63.887  0.00  0.00    -0.286 OA
ATOM      9  C   UNL     1     -12.090  14.502  64.661  0.00  0.00    +0.042 A 
ATOM     10  C   UNL     1     -12.475  13.846  65.826  0.00  0.00    +0.001 A 
BRANCH   6  11
ATOM     11  C   UNL     1      -9.864  17.020  66.119  0.00  0.00    +0.287 C 
ATOM     12  O   UNL     1      -8.637  17.122  65.813  0.00  0.00    -0.267 OA
ATOM     13  N   UNL     1     -10.458  17.828  67.142  0.00  0.00    -0.084 NA
ENDBRANCH   6  11
ENDBRANCH   2   4
ENDBRANCH   1   2
BRANCH   1  14
ATOM     14  N   UNL     1     -10.796  10.964  66.747  0.00  0.00    -0.216 NA
BRANCH  14  16
ATOM     15  C   UNL     1      -9.868   8.896  66.151  0.00  0.00    +0.019 C 
ATOM     16  C   UNL     1      -9.547  10.108  67.234  0.00  0.00    +0.073 C 
BRANCH  16  17
ATOM     17  C   UNL     1     -10.373   9.345  68.448  0.00  0.00    +0.022 C 
BRANCH  17  18
ATOM     18  C   UNL     1      -9.858   9.839  69.743  0.00  0.00    +0.028 C 
BRANCH  18  19
ATOM     19  C   UNL     1     -10.958   9.710  70.732  0.00  0.00    -0.022 A 
ATOM     20  C   UNL     1     -10.772   8.859  71.816  0.00  0.00    -0.004 A 
ATOM     21  C   UNL     1     -11.931   8.243  72.276  0.00  0.00    -0.000 A 
ATOM     22  C   UNL     1     -13.060   9.030  72.238  0.00  0.00    -0.000 A 
ATOM     23  C   UNL     1     -13.097  10.258  71.588  0.00  0.00    -0.000 A 
ATOM     24  C   UNL     1     -12.038  10.554  70.789  0.00  0.00    -0.004 A 
ENDBRANCH  18  19
ENDBRANCH  17  18
ENDBRANCH  16  17
ENDBRANCH  14  16
ENDBRANCH   1  14
TORSDOF 8
ENDMDL
MODEL 7
REMARK VINA RESULT:      -6.2      2.957      5.181
REMARK  Name = 
REMARK  8 active torsions:
REMARK  status: ('A' for Active; 'I' for Inactive)
REMARK    1  A    between atoms: C_2  and  C_3
REMARK    2  A    between atoms: C_2  and  N_11
REMARK    3  A    between atoms: C_3  and  C_4
REMARK    4  A    between atoms: C_4  and  C_5
REMARK    5  A    between atoms: N_11  and  C_12
REMARK    6  A    between atoms: C_12  and  C_13
REMARK    7  A    between atoms: C_13  and  C_15
REMARK    8  A    between atoms: C_20  and  C_21
REMARK                            x       y       z     vdW  Elec       q    Type
REMARK                         _______ _______ _______ _____ _____    ______ ____
ROOT
ATOM      1  C   UNL     1     -11.633  13.864  67.570  0.00  0.00    +0.126 C 
ENDROOT
BRANCH   1   2
ATOM      2  C   UNL     1     -11.322  12.286  67.108  0.00  0.00    +0.192 C 
ATOM      3  O   UNL     1      -9.820  12.578  66.940  0.00  0.00    -0.217 OA
BRANCH   2   4
ATOM      4  C   UNL     1     -11.091  11.825  68.668  0.00  0.00    +0.009 A 
ATOM      5  C   UNL     1     -12.190  11.128  69.167  0.00  0.00    +0.006 A 
ATOM      6  C   UNL     1     -11.949  10.297  70.255  0.00  0.00    +0.095 A 
ATOM      7  C   UNL     1     -10.654   9.865  70.511  0.00  0.00    +0.200 A 
ATOM      8  O   UNL     1     -10.326   9.219  71.698  0.00  0.00    -0.286 OA
ATOM      9  C   UNL     1      -9.760   9.965  69.473  0.00  0.00    +0.042 A 
ATOM     10  C   UNL     1      -9.924  11.063  68.634  0.00  0.00    +0.001 A 
BRANCH   6  11
ATOM     11  C   UNL     1     -12.857  10.243  71.410  0.00  0.00    +0.287 C 
ATOM     12  O   UNL     1     -13.622   9.238  71.535  0.00  0.00    -0.267 OA
ATOM     13  N   UNL     1     -13.210  11.531  71.927  0.00  0.00    -0.084 NA
ENDBRANCH   6  11
ENDBRANCH   2   4
ENDBRANCH   1   2
BRANCH   1  14
ATOM     14  N   UNL     1     -10.429  14.487  67.018  0.00  0.00    -0.216 NA
BRANCH  14  16
ATOM     15  C   UNL     1      -9.193  15.720  68.581  0.00  0.00    +0.019 C 
ATOM     16  C   UNL     1     -10.477  15.979  67.567  0.00  0.00    +0.073 C 
BRANCH  16  17
ATOM     17  C   UNL     1     -11.580  15.648  68.755  0.00  0.00    +0.022 C 
BRANCH  17  18
ATOM     18  C   UNL     1     -11.051  16.160  70.037  0.00  0.00    +0.028 C 
BRANCH  18  19
ATOM     19  C   UNL     1     -12.034  15.805  71.092  0.00  0.00    -0.022 A 
ATOM     20  C   UNL     1     -13.003  14.853  70.794  0.00  0.00    -0.004 A 
ATOM     21  C   UNL     1     -14.221  15.044  71.439  0.00  0.00    -0.000 A 
ATOM     22  C   UNL     1     -14.126  15.511  72.731  0.00  0.00    -0.000 A 
ATOM     23  C   UNL     1     -12.933  15.972  73.276  0.00  0.00    -0.000 A 
ATOM     24  C   UNL     1     -11.903  16.160  72.410  0.00  0.00    -0.004 A 
ENDBRANCH  18  19
ENDBRANCH  17  18
ENDBRANCH  16  17
ENDBRANCH  14  16
ENDBRANCH   1  14
TORSDOF 8
ENDMDL
MODEL 8
REMARK VINA RESULT:      -6.2      2.479      6.855
REMARK  Name = 
REMARK  8 active torsions:
REMARK  status: ('A' for Active; 'I' for Inactive)
REMARK    1  A    between atoms: C_2  and  C_3
REMARK    2  A    between atoms: C_2  and  N_11
REMARK    3  A    between atoms: C_3  and  C_4
REMARK    4  A    between atoms: C_4  and  C_5
REMARK    5  A    between atoms: N_11  and  C_12
REMARK    6  A    between atoms: C_12  and  C_13
REMARK    7  A    between atoms: C_13  and  C_15
REMARK    8  A    between atoms: C_20  and  C_21
REMARK                            x       y       z     vdW  Elec       q    Type
REMARK                         _______ _______ _______ _____ _____    ______ ____
ROOT
ATOM      1  C   UNL     1     -11.759  15.773  68.858  0.00  0.00    +0.126 C 
ENDROOT
BRANCH   1   2
ATOM      2  C   UNL     1     -11.680  15.378  70.482  0.00  0.00    +0.192 C 
ATOM      3  O   UNL     1     -13.055  16.017  70.756  0.00  0.00    -0.217 OA
BRANCH   2   4
ATOM      4  C   UNL     1     -12.378  13.916  70.210  0.00  0.00    +0.009 A 
ATOM      5  C   UNL     1     -11.446  12.973  69.778  0.00  0.00    +0.006 A 
ATOM      6  C   UNL     1     -11.786  11.640  69.970  0.00  0.00    +0.095 A 
ATOM      7  C   UNL     1     -12.750  11.309  70.913  0.00  0.00    +0.200 A 
ATOM      8  O   UNL     1     -13.280  10.026  70.991  0.00  0.00    -0.286 OA
ATOM      9  C   UNL     1     -13.031  12.264  71.860  0.00  0.00    +0.042 A 
ATOM     10  C   UNL     1     -12.974  13.585  71.426  0.00  0.00    +0.001 A 
BRANCH   6  11
ATOM     11  C   UNL     1     -11.566  10.622  68.932  0.00  0.00    +0.287 C 
ATOM     12  O   UNL     1     -10.709   9.711  69.146  0.00  0.00    -0.267 OA
ATOM     13  N   UNL     1     -11.875  11.073  67.608  0.00  0.00    -0.084 NA
ENDBRANCH   6  11
ENDBRANCH   2   4
ENDBRANCH   1   2
BRANCH   1  14
ATOM     14  N   UNL     1     -10.859  16.927  68.877  0.00  0.00    -0.216 NA
BRANCH  14  16
ATOM     15  C   UNL     1     -10.350  17.898  66.805  0.00  0.00    +0.019 C 
ATOM     16  C   UNL     1      -9.814  16.623  67.717  0.00  0.00    +0.073 C 
BRANCH  16  17
ATOM     17  C   UNL     1     -10.796  15.548  66.930  0.00  0.00    +0.022 C 
BRANCH  17  18
ATOM     18  C   UNL     1     -10.161  15.194  65.643  0.00  0.00    +0.028 C 
BRANCH  18  19
ATOM     19  C   UNL     1     -10.873  14.003  65.115  0.00  0.00    -0.022 A 
ATOM     20  C   UNL     1     -10.114  12.926  64.671  0.00  0.00    -0.004 A 
ATOM     21  C   UNL     1     -10.679  12.212  63.619  0.00  0.00    -0.000 A 
ATOM     22  C   UNL     1     -12.048  12.077  63.679  0.00  0.00    -0.000 A 
ATOM     23  C   UNL     1     -12.832  12.782  64.585  0.00  0.00    -0.000 A 
ATOM     24  C   UNL     1     -12.220  13.789  65.263  0.00  0.00    -0.004 A 
ENDBRANCH  18  19
ENDBRANCH  17  18
ENDBRANCH  16  17
ENDBRANCH  14  16
ENDBRANCH   1  14
TORSDOF 8
ENDMDL
MODEL 9
REMARK VINA RESULT:      -6.2      2.497      3.832
REMARK  Name = 
REMARK  8 active torsions:
REMARK  status: ('A' for Active; 'I' for Inactive)
REMARK    1  A    between atoms: C_2  and  C_3
REMARK    2  A    between atoms: C_2  and  N_11
REMARK    3  A    between atoms: C_3  and  C_4
REMARK    4  A    between atoms: C_4  and  C_5
REMARK    5  A    between atoms: N_11  and  C_12
REMARK    6  A    between atoms: C_12  and  C_13
REMARK    7  A    between atoms: C_13  and  C_15
REMARK    8  A    between atoms: C_20  and  C_21
REMARK                            x       y       z     vdW  Elec       q    Type
REMARK                         _______ _______ _______ _____ _____    ______ ____
ROOT
ATOM      1  C   UNL     1      -9.652  11.156  67.829  0.00  0.00    +0.126 C 
ENDROOT
BRANCH   1   2
ATOM      2  C   UNL     1      -8.712  12.539  67.765  0.00  0.00    +0.192 C 
ATOM      3  O   UNL     1      -7.824  11.945  66.657  0.00  0.00    -0.217 OA
BRANCH   2   4
ATOM      4  C   UNL     1      -9.707  13.220  66.649  0.00  0.00    +0.009 A 
ATOM      5  C   UNL     1     -10.299  12.259  65.832  0.00  0.00    +0.006 A 
ATOM      6  C   UNL     1     -11.477  12.634  65.197  0.00  0.00    +0.095 A 
ATOM      7  C   UNL     1     -12.216  13.697  65.699  0.00  0.00    +0.200 A 
ATOM      8  O   UNL     1     -13.274  14.247  64.985  0.00  0.00    -0.286 OA
ATOM      9  C   UNL     1     -11.952  14.066  66.996  0.00  0.00    +0.042 A 
ATOM     10  C   UNL     1     -10.627  13.946  67.403  0.00  0.00    +0.001 A 
BRANCH   6  11
ATOM     11  C   UNL     1     -11.736  12.316  63.785  0.00  0.00    +0.287 C 
ATOM     12  O   UNL     1     -12.890  11.903  63.457  0.00  0.00    -0.267 OA
ATOM     13  N   UNL     1     -10.563  11.940  63.054  0.00  0.00    -0.084 NA
ENDBRANCH   6  11
ENDBRANCH   2   4
ENDBRANCH   1   2
BRANCH   1  14
ATOM     14  N   UNL     1      -9.618  10.943  69.277  0.00  0.00    -0.216 NA
BRANCH  14  16
ATOM     15  C   UNL     1     -11.023   9.632  67.935  0.00  0.00    +0.019 C 
ATOM     16  C   UNL     1     -10.820   9.938  69.551  0.00  0.00    +0.073 C 
BRANCH  16  17
ATOM     17  C   UNL     1     -11.982  11.118  69.551  0.00  0.00    +0.022 C 
BRANCH  17  18
ATOM     18  C   UNL     1     -12.506  11.253  70.926  0.00  0.00    +0.028 C 
BRANCH  18  19
ATOM     19  C   UNL     1     -12.752  12.698  71.164  0.00  0.00    -0.022 A 
ATOM     20  C   UNL     1     -13.547  13.062  72.246  0.00  0.00    -0.004 A 
ATOM     21  C   UNL     1     -14.296  14.218  72.053  0.00  0.00    -0.000 A 
ATOM     22  C   UNL     1     -13.660  15.207  71.336  0.00  0.00    -0.000 A 
ATOM     23  C   UNL     1     -12.462  14.994  70.663  0.00  0.00    -0.000 A 
ATOM     24  C   UNL     1     -12.052  13.704  70.548  0.00  0.00    -0.004 A 
ENDBRANCH  18  19
ENDBRANCH  17  18
ENDBRANCH  16  17
ENDBRANCH  14  16
ENDBRANCH   1  14
TORSDOF 8
ENDMDL
