MODEL 1
REMARK VINA RESULT:      -6.8      0.000      0.000
REMARK  Name = 
REMARK  6 active torsions:
REMARK  status: ('A' for Active; 'I' for Inactive)
REMARK    1  A    between atoms: C_9  and  C_10
REMARK    2  A    between atoms: C_20  and  C_21
REMARK    3  A    between atoms: C_21  and  C_23
REMARK    4  A    between atoms: C_23  and  C_24
REMARK    5  A    between atoms: C_24  and  C_25
REMARK    6  A    between atoms: C_25  and  C_26
REMARK                            x       y       z     vdW  Elec       q    Type
REMARK                         _______ _______ _______ _____ _____    ______ ____
ROOT
ATOM      1  C   UNL     1      -7.171  19.188  65.740  0.00  0.00    -0.009 C 
ATOM      2  C   UNL     1      -8.291  19.050  66.413  0.00  0.00    -0.045 C 
ATOM      3  C   UNL     1      -8.129  17.801  67.449  0.00  0.00    +0.018 C 
ATOM      4  C   UNL     1      -8.030  16.705  66.220  0.00  0.00    +0.004 C 
ATOM      5  C   UNL     1      -8.832  15.588  66.721  0.00  0.00    +0.000 C 
ATOM      6  C   UNL     1      -9.432  16.102  68.152  0.00  0.00    +0.000 C 
ATOM      7  C   UNL     1      -9.767  17.564  67.528  0.00  0.00    +0.003 C 
ATOM      8  C   UNL     1     -10.307  17.461  66.219  0.00  0.00    +0.000 C 
ATOM      9  C   UNL     1     -10.128  18.513  68.542  0.00  0.00    +0.001 C 
ATOM     10  C   UNL     1      -9.908  19.914  68.114  0.00  0.00    +0.004 C 
ATOM     11  C   UNL     1      -8.717  20.186  67.269  0.00  0.00    +0.022 C 
ENDROOT
BRANCH   1  15
ATOM     12  C   UNL     1      -5.064  18.150  65.360  0.00  0.00    -0.005 C 
ATOM     13  C   UNL     1      -4.493  18.991  65.620  0.00  0.00    -0.026 C 
ATOM     14  C   UNL     1      -5.126  20.332  65.627  0.00  0.00    -0.024 C 
ATOM     15  C   UNL     1      -6.449  20.449  65.548  0.00  0.00    -0.005 C 
ATOM     16  C   UNL     1      -4.186  21.363  66.061  0.00  0.00    +0.059 C 
ATOM     17  C   UNL     1      -3.228  21.731  64.732  0.00  0.00    +0.157 C 
ATOM     18  O   UNL     1      -1.938  21.406  65.517  0.00  0.00    -0.223 OA
ATOM     19  C   UNL     1      -3.264  20.189  64.068  0.00  0.00    +0.038 C 
ATOM     20  C   UNL     1      -3.061  19.255  65.224  0.00  0.00    +0.029 C 
ENDBRANCH   1  15
BRANCH   6  21
ATOM     21  C   UNL     1     -10.969  15.425  67.780  0.00  0.00    +0.000 C 
ATOM     22  C   UNL     1     -11.530  15.611  69.303  0.00  0.00    +0.000 C 
BRANCH  21  23
ATOM     23  C   UNL     1     -10.409  13.915  68.067  0.00  0.00    +0.000 C 
BRANCH  23  24
ATOM     24  C   UNL     1     -11.286  12.953  67.389  0.00  0.00    +0.003 C 
BRANCH  24  25
ATOM     25  C   UNL     1     -12.380  13.452  66.534  0.00  0.00    +0.030 C 
BRANCH  25  26
ATOM     26  C   UNL     1     -12.184  13.125  65.087  0.00  0.00    +0.127 C 
ATOM     27  O   UNL     1     -13.211  12.377  64.549  0.00  0.00    -0.226 OA
ATOM     28  C   UNL     1     -12.092  14.477  64.387  0.00  0.00    +0.033 C 
ATOM     29  C   UNL     1     -10.884  12.371  64.937  0.00  0.00    +0.033 C 
ENDBRANCH  25  26
ENDBRANCH  24  25
ENDBRANCH  23  24
ENDBRANCH  21  23
ENDBRANCH   6  21
TORSDOF 6
ENDMDL
MODEL 2
REMARK VINA RESULT:      -6.8      2.733      8.460
REMARK  Name = 
REMARK  6 active torsions:
REMARK  status: ('A' for Active; 'I' for Inactive)
REMARK    1  A    between atoms: C_9  and  C_10
REMARK    2  A    between atoms: C_20  and  C_21
REMARK    3  A    between atoms: C_21  and  C_23
REMARK    4  A    between atoms: C_23  and  C_24
REMARK    5  A    between atoms: C_24  and  C_25
REMARK    6  A    between atoms: C_25  and  C_26
REMARK                            x       y       z     vdW  Elec       q    Type
REMARK                         _______ _______ _______ _____ _____    ______ ____
ROOT
ATOM      1  C   UNL     1     -10.081  16.252  67.104  0.00  0.00    -0.009 C 
ATOM      2  C   UNL     1      -9.743  17.520  67.156  0.00  0.00    -0.045 C 
ATOM      3  C   UNL     1      -8.281  17.703  66.458  0.00  0.00    +0.018 C 
ATOM      4  C   UNL     1      -7.530  16.836  67.644  0.00  0.00    +0.004 C 
ATOM      5  C   UNL     1      -6.300  17.595  67.866  0.00  0.00    +0.000 C 
ATOM      6  C   UNL     1      -6.420  18.900  66.889  0.00  0.00    +0.000 C 
ATOM      7  C   UNL     1      -7.980  19.103  67.292  0.00  0.00    +0.003 C 
ATOM      8  C   UNL     1      -8.191  18.896  68.681  0.00  0.00    +0.000 C 
ATOM      9  C   UNL     1      -8.634  20.064  66.451  0.00  0.00    +0.001 C 
ATOM     10  C   UNL     1     -10.104  19.882  66.415  0.00  0.00    +0.004 C 
ATOM     11  C   UNL     1     -10.615  18.487  66.442  0.00  0.00    +0.022 C 
ENDROOT
BRANCH   1  15
ATOM     12  C   UNL     1      -9.166  14.279  66.136  0.00  0.00    -0.005 C 
ATOM     13  C   UNL     1      -9.964  14.116  65.476  0.00  0.00    -0.026 C 
ATOM     14  C   UNL     1     -11.272  14.768  65.732  0.00  0.00    -0.024 C 
ATOM     15  C   UNL     1     -11.371  15.737  66.639  0.00  0.00    -0.005 C 
ATOM     16  C   UNL     1     -12.237  14.458  64.680  0.00  0.00    +0.059 C 
ATOM     17  C   UNL     1     -12.841  12.928  65.016  0.00  0.00    +0.157 C 
ATOM     18  O   UNL     1     -12.419  12.409  63.623  0.00  0.00    -0.223 OA
ATOM     19  C   UNL     1     -11.430  12.340  65.710  0.00  0.00    +0.038 C 
ATOM     20  C   UNL     1     -10.322  12.808  64.814  0.00  0.00    +0.029 C 
ENDBRANCH   1  15
BRANCH   6  21
ATOM     21  C   UNL     1      -5.810  19.920  68.131  0.00  0.00    +0.000 C 
ATOM     22  C   UNL     1      -5.614  21.193  67.127  0.00  0.00    +0.000 C 
BRANCH  21  23
ATOM     23  C   UNL     1      -4.290  19.367  67.883  0.00  0.00    +0.000 C 
BRANCH  23  24
ATOM     24  C   UNL     1      -3.474  19.696  69.058  0.00  0.00    +0.003 C 
BRANCH  24  25
ATOM     25  C   UNL     1      -3.832  19.120  70.368  0.00  0.00    +0.030 C 
BRANCH  25  26
ATOM     26  C   UNL     1      -4.179  20.161  71.386  0.00  0.00    +0.127 C 
ATOM     27  O   UNL     1      -3.459  20.045  72.558  0.00  0.00    -0.226 OA
ATOM     28  C   UNL     1      -3.874  21.492  70.707  0.00  0.00    +0.033 C 
ATOM     29  C   UNL     1      -5.655  20.059  71.693  0.00  0.00    +0.033 C 
ENDBRANCH  25  26
ENDBRANCH  24  25
ENDBRANCH  23  24
ENDBRANCH  21  23
ENDBRANCH   6  21
TORSDOF 6
ENDMDL
MODEL 3
REMARK VINA RESULT:      -6.8      5.586      9.859
REMARK  Name = 
REMARK  6 active torsions:
REMARK  status: ('A' for Active; 'I' for Inactive)
REMARK    1  A    between atoms: C_9  and  C_10
REMARK    2  A    between atoms: C_20  and  C_21
REMARK    3  A    between atoms: C_21  and  C_23
REMARK    4  A    between atoms: C_23  and  C_24
REMARK    5  A    between atoms: C_24  and  C_25
REMARK    6  A    between atoms: C_25  and  C_26
REMARK                            x       y       z     vdW  Elec       q    Type
REMARK                         _______ _______ _______ _____ _____    ______ ____
ROOT
ATOM      1  C   UNL     1     -10.163  10.072  66.648  0.00  0.00    -0.009 C 
ATOM      2  C   UNL     1     -10.472  11.274  66.217  0.00  0.00    -0.045 C 
ATOM      3  C   UNL     1      -9.663  12.375  67.107  0.00  0.00    +0.018 C 
ATOM      4  C   UNL     1     -10.508  11.994  68.472  0.00  0.00    +0.004 C 
ATOM      5  C   UNL     1     -10.750  13.304  69.075  0.00  0.00    +0.000 C 
ATOM      6  C   UNL     1     -10.132  14.384  68.014  0.00  0.00    +0.000 C 
ATOM      7  C   UNL     1     -10.762  13.566  66.760  0.00  0.00    +0.003 C 
ATOM      8  C   UNL     1     -12.076  13.110  67.041  0.00  0.00    +0.000 C 
ATOM      9  C   UNL     1     -10.259  14.038  65.502  0.00  0.00    +0.001 C 
ATOM     10  C   UNL     1     -10.362  13.021  64.430  0.00  0.00    +0.004 C 
ATOM     11  C   UNL     1     -10.121  11.606  64.813  0.00  0.00    +0.022 C 
ENDROOT
BRANCH   1  15
ATOM     12  C   UNL     1     -10.529   8.423  68.324  0.00  0.00    -0.005 C 
ATOM     13  C   UNL     1      -9.884   7.712  67.902  0.00  0.00    -0.026 C 
ATOM     14  C   UNL     1      -9.494   7.831  66.477  0.00  0.00    -0.024 C 
ATOM     15  C   UNL     1      -9.752   8.949  65.803  0.00  0.00    -0.005 C 
ATOM     16  C   UNL     1      -8.557   6.778  66.090  0.00  0.00    +0.059 C 
ATOM     17  C   UNL     1      -9.471   5.399  65.810  0.00  0.00    +0.157 C 
ATOM     18  O   UNL     1      -8.650   4.593  66.842  0.00  0.00    -0.223 OA
ATOM     19  C   UNL     1     -10.650   5.744  66.955  0.00  0.00    +0.038 C 
ATOM     20  C   UNL     1      -9.901   6.225  68.162  0.00  0.00    +0.029 C 
ENDBRANCH   1  15
BRANCH   6  21
ATOM     21  C   UNL     1     -11.496  15.410  68.224  0.00  0.00    +0.000 C 
ATOM     22  C   UNL     1     -10.785  16.674  67.473  0.00  0.00    +0.000 C 
BRANCH  21  23
ATOM     23  C   UNL     1     -10.967  15.866  69.703  0.00  0.00    +0.000 C 
BRANCH  23  24
ATOM     24  C   UNL     1     -12.116  15.925  70.615  0.00  0.00    +0.003 C 
BRANCH  24  25
ATOM     25  C   UNL     1     -11.877  16.060  72.065  0.00  0.00    +0.030 C 
BRANCH  25  26
ATOM     26  C   UNL     1     -12.978  15.473  72.892  0.00  0.00    +0.127 C 
ATOM     27  O   UNL     1     -14.188  16.118  72.735  0.00  0.00    -0.226 OA
ATOM     28  C   UNL     1     -13.087  14.024  72.431  0.00  0.00    +0.033 C 
ATOM     29  C   UNL     1     -12.567  15.528  74.346  0.00  0.00    +0.033 C 
ENDBRANCH  25  26
ENDBRANCH  24  25
ENDBRANCH  23  24
ENDBRANCH  21  23
ENDBRANCH   6  21
TORSDOF 6
ENDMDL
MODEL 4
REMARK VINA RESULT:      -6.6      3.901     10.253
REMARK  Name = 
REMARK  6 active torsions:
REMARK  status: ('A' for Active; 'I' for Inactive)
REMARK    1  A    between atoms: C_9  and  C_10
REMARK    2  A    between atoms: C_20  and  C_21
REMARK    3  A    between atoms: C_21  and  C_23
REMARK    4  A    between atoms: C_23  and  C_24
REMARK    5  A    between atoms: C_24  and  C_25
REMARK    6  A    between atoms: C_25  and  C_26
REMARK                            x       y       z     vdW  Elec       q    Type
REMARK                         _______ _______ _______ _____ _____    ______ ____
ROOT
ATOM      1  C   UNL     1     -11.205  10.908  69.032  0.00  0.00    -0.009 C 
ATOM      2  C   UNL     1     -11.006  11.659  67.972  0.00  0.00    -0.045 C 
ATOM      3  C   UNL     1     -10.079  12.931  68.396  0.00  0.00    +0.018 C 
ATOM      4  C   UNL     1     -11.261  13.559  69.360  0.00  0.00    +0.004 C 
ATOM      5  C   UNL     1     -11.177  14.992  69.079  0.00  0.00    +0.000 C 
ATOM      6  C   UNL     1     -10.036  15.133  67.917  0.00  0.00    +0.000 C 
ATOM      7  C   UNL     1     -10.630  13.844  67.127  0.00  0.00    +0.003 C 
ATOM      8  C   UNL     1     -12.049  13.849  67.113  0.00  0.00    +0.000 C 
ATOM      9  C   UNL     1      -9.755  13.404  66.079  0.00  0.00    +0.001 C 
ATOM     10  C   UNL     1      -9.967  11.982  65.720  0.00  0.00    +0.004 C 
ATOM     11  C   UNL     1     -10.288  11.045  66.827  0.00  0.00    +0.022 C 
ENDROOT
BRANCH   1  15
ATOM     12  C   UNL     1     -12.385  10.642  71.081  0.00  0.00    -0.005 C 
ATOM     13  C   UNL     1     -11.934   9.730  71.335  0.00  0.00    -0.026 C 
ATOM     14  C   UNL     1     -11.267   8.925  70.283  0.00  0.00    -0.024 C 
ATOM     15  C   UNL     1     -11.023   9.456  69.087  0.00  0.00    -0.005 C 
ATOM     16  C   UNL     1     -10.660   7.718  70.840  0.00  0.00    +0.059 C 
ATOM     17  C   UNL     1     -11.898   6.600  71.027  0.00  0.00    +0.157 C 
ATOM     18  O   UNL     1     -11.585   6.441  72.532  0.00  0.00    -0.223 OA
ATOM     19  C   UNL     1     -13.097   7.729  71.351  0.00  0.00    +0.038 C 
ATOM     20  C   UNL     1     -12.474   8.707  72.303  0.00  0.00    +0.029 C 
ENDBRANCH   1  15
BRANCH   6  21
ATOM     21  C   UNL     1     -10.998  16.282  67.075  0.00  0.00    +0.000 C 
ATOM     22  C   UNL     1      -9.861  16.545  65.932  0.00  0.00    +0.000 C 
BRANCH  21  23
ATOM     23  C   UNL     1     -10.453  17.490  68.033  0.00  0.00    +0.000 C 
BRANCH  23  24
ATOM     24  C   UNL     1     -10.082  18.630  67.187  0.00  0.00    +0.003 C 
BRANCH  24  25
ATOM     25  C   UNL     1      -9.419  19.797  67.800  0.00  0.00    +0.030 C 
BRANCH  25  26
ATOM     26  C   UNL     1      -7.978  19.916  67.415  0.00  0.00    +0.127 C 
ATOM     27  O   UNL     1      -7.497  21.208  67.479  0.00  0.00    -0.226 OA
ATOM     28  C   UNL     1      -7.232  19.024  68.402  0.00  0.00    +0.033 C 
ATOM     29  C   UNL     1      -7.811  19.390  66.008  0.00  0.00    +0.033 C 
ENDBRANCH  25  26
ENDBRANCH  24  25
ENDBRANCH  23  24
ENDBRANCH  21  23
ENDBRANCH   6  21
TORSDOF 6
ENDMDL
MODEL 5
REMARK VINA RESULT:      -6.5      6.279     10.691
REMARK  Name = 
REMARK  6 active torsions:
REMARK  status: ('A' for Active; 'I' for Inactive)
REMARK    1  A    between atoms: C_9  and  C_10
REMARK    2  A    between atoms: C_20  and  C_21
REMARK    3  A    between atoms: C_21  and  C_23
REMARK    4  A    between atoms: C_23  and  C_24
REMARK    5  A    between atoms: C_24  and  C_25
REMARK    6  A    between atoms: C_25  and  C_26
REMARK                            x       y       z     vdW  Elec       q    Type
REMARK                         _______ _______ _______ _____ _____    ______ ____
ROOT
ATOM      1  C   UNL     1     -10.096  10.279  67.568  0.00  0.00    -0.009 C 
ATOM      2  C   UNL     1     -10.082   9.009  67.905  0.00  0.00    -0.045 C 
ATOM      3  C   UNL     1     -11.037   8.804  69.211  0.00  0.00    +0.018 C 
ATOM      4  C   UNL     1     -10.029   9.688  70.173  0.00  0.00    +0.004 C 
ATOM      5  C   UNL     1     -10.024   8.925  71.421  0.00  0.00    +0.000 C 
ATOM      6  C   UNL     1     -10.936   7.603  71.116  0.00  0.00    +0.000 C 
ATOM      7  C   UNL     1     -10.245   7.418  69.658  0.00  0.00    +0.003 C 
ATOM      8  C   UNL     1      -8.846   7.653  69.710  0.00  0.00    +0.000 C 
ATOM      9  C   UNL     1     -10.931   6.445  68.856  0.00  0.00    +0.001 C 
ATOM     10  C   UNL     1     -10.696   6.636  67.405  0.00  0.00    +0.004 C 
ATOM     11  C   UNL     1     -10.601   8.035  66.913  0.00  0.00    +0.022 C 
ENDROOT
BRANCH   1  15
ATOM     12  C   UNL     1     -11.003  12.354  68.298  0.00  0.00    -0.005 C 
ATOM     13  C   UNL     1     -11.524  12.550  67.410  0.00  0.00    -0.026 C 
ATOM     14  C   UNL     1     -11.143  11.840  66.165  0.00  0.00    -0.024 C 
ATOM     15  C   UNL     1     -10.322  10.793  66.215  0.00  0.00    -0.005 C 
ATOM     16  C   UNL     1     -12.013  12.211  65.051  0.00  0.00    +0.059 C 
ATOM     17  C   UNL     1     -11.458  13.687  64.477  0.00  0.00    +0.157 C 
ATOM     18  O   UNL     1     -12.844  14.338  64.683  0.00  0.00    -0.223 OA
ATOM     19  C   UNL     1     -10.923  14.254  65.964  0.00  0.00    +0.038 C 
ATOM     20  C   UNL     1     -12.008  13.899  66.937  0.00  0.00    +0.029 C 
ENDBRANCH   1  15
BRANCH   6  21
ATOM     21  C   UNL     1      -9.809   6.603  71.944  0.00  0.00    +0.000 C 
ATOM     22  C   UNL     1     -10.862   5.363  72.086  0.00  0.00    +0.000 C 
BRANCH  21  23
ATOM     23  C   UNL     1     -10.235   7.257  73.382  0.00  0.00    +0.000 C 
BRANCH  23  24
ATOM     24  C   UNL     1      -9.168   6.990  74.354  0.00  0.00    +0.003 C 
BRANCH  24  25
ATOM     25  C   UNL     1      -7.802   6.716  73.867  0.00  0.00    +0.030 C 
BRANCH  25  26
ATOM     26  C   UNL     1      -6.895   7.901  73.983  0.00  0.00    +0.127 C 
ATOM     27  O   UNL     1      -7.446   8.948  74.692  0.00  0.00    -0.226 OA
ATOM     28  C   UNL     1      -5.652   7.376  74.696  0.00  0.00    +0.033 C 
ATOM     29  C   UNL     1      -6.537   8.370  72.592  0.00  0.00    +0.033 C 
ENDBRANCH  25  26
ENDBRANCH  24  25
ENDBRANCH  23  24
ENDBRANCH  21  23
ENDBRANCH   6  21
TORSDOF 6
ENDMDL
MODEL 6
REMARK VINA RESULT:      -6.4      4.487     10.478
REMARK  Name = 
REMARK  6 active torsions:
REMARK  status: ('A' for Active; 'I' for Inactive)
REMARK    1  A    between atoms: C_9  and  C_10
REMARK    2  A    between atoms: C_20  and  C_21
REMARK    3  A    between atoms: C_21  and  C_23
REMARK    4  A    between atoms: C_23  and  C_24
REMARK    5  A    between atoms: C_24  and  C_25
REMARK    6  A    between atoms: C_25  and  C_26
REMARK                            x       y       z     vdW  Elec       q    Type
REMARK                         _______ _______ _______ _____ _____    ______ ____
ROOT
ATOM      1  C   UNL     1     -10.904   9.897  68.960  0.00  0.00    -0.009 C 
ATOM      2  C   UNL     1     -10.786  10.581  67.844  0.00  0.00    -0.045 C 
ATOM      3  C   UNL     1      -9.904  11.920  68.140  0.00  0.00    +0.018 C 
ATOM      4  C   UNL     1     -11.074  12.560  69.112  0.00  0.00    +0.004 C 
ATOM      5  C   UNL     1     -11.070  13.972  68.732  0.00  0.00    +0.000 C 
ATOM      6  C   UNL     1      -9.987  14.083  67.512  0.00  0.00    +0.000 C 
ATOM      7  C   UNL     1     -10.551  12.717  66.839  0.00  0.00    +0.003 C 
ATOM      8  C   UNL     1     -11.968  12.657  66.888  0.00  0.00    +0.000 C 
ATOM      9  C   UNL     1      -9.700  12.245  65.784  0.00  0.00    +0.001 C 
ATOM     10  C   UNL     1      -9.858  10.794  65.531  0.00  0.00    +0.004 C 
ATOM     11  C   UNL     1     -10.088   9.922  66.712  0.00  0.00    +0.022 C 
ENDROOT
BRANCH   1  15
ATOM     12  C   UNL     1     -11.735   9.776  71.187  0.00  0.00    -0.005 C 
ATOM     13  C   UNL     1     -11.210   8.905  71.439  0.00  0.00    -0.026 C 
ATOM     14  C   UNL     1     -10.679   8.032  70.364  0.00  0.00    -0.024 C 
ATOM     15  C   UNL     1     -10.651   8.462  69.105  0.00  0.00    -0.005 C 
ATOM     16  C   UNL     1      -9.939   6.898  70.914  0.00  0.00    +0.059 C 
ATOM     17  C   UNL     1     -11.081   5.762  71.387  0.00  0.00    +0.157 C 
ATOM     18  O   UNL     1     -10.529   5.747  72.831  0.00  0.00    -0.223 OA
ATOM     19  C   UNL     1     -12.264   6.877  71.805  0.00  0.00    +0.038 C 
ATOM     20  C   UNL     1     -11.544   7.954  72.562  0.00  0.00    +0.029 C 
ENDBRANCH   1  15
BRANCH   6  21
ATOM     21  C   UNL     1     -11.038  15.127  66.639  0.00  0.00    +0.000 C 
ATOM     22  C   UNL     1      -9.839  15.707  65.694  0.00  0.00    +0.000 C 
BRANCH  21  23
ATOM     23  C   UNL     1     -10.856  16.303  67.760  0.00  0.00    +0.000 C 
BRANCH  23  24
ATOM     24  C   UNL     1     -10.077  17.398  67.170  0.00  0.00    +0.003 C 
BRANCH  24  25
ATOM     25  C   UNL     1     -10.068  18.715  67.835  0.00  0.00    +0.030 C 
BRANCH  25  26
ATOM     26  C   UNL     1      -9.721  19.835  66.904  0.00  0.00    +0.127 C 
ATOM     27  O   UNL     1      -9.814  21.083  67.487  0.00  0.00    -0.226 OA
ATOM     28  C   UNL     1      -8.284  19.557  66.474  0.00  0.00    +0.033 C 
ATOM     29  C   UNL     1     -10.644  19.771  65.710  0.00  0.00    +0.033 C 
ENDBRANCH  25  26
ENDBRANCH  24  25
ENDBRANCH  23  24
ENDBRANCH  21  23
ENDBRANCH   6  21
TORSDOF 6
ENDMDL
MODEL 7
REMARK VINA RESULT:      -6.4      6.635     10.604
REMARK  Name = 
REMARK  6 active torsions:
REMARK  status: ('A' for Active; 'I' for Inactive)
REMARK    1  A    between atoms: C_9  and  C_10
REMARK    2  A    between atoms: C_20  and  C_21
REMARK    3  A    between atoms: C_21  and  C_23
REMARK    4  A    between atoms: C_23  and  C_24
REMARK    5  A    between atoms: C_24  and  C_25
REMARK    6  A    between atoms: C_25  and  C_26
REMARK                            x       y       z     vdW  Elec       q    Type
REMARK                         _______ _______ _______ _____ _____    ______ ____
ROOT
ATOM      1  C   UNL     1     -11.182  10.654  69.175  0.00  0.00    -0.009 C 
ATOM      2  C   UNL     1     -11.695   9.818  70.049  0.00  0.00    -0.045 C 
ATOM      3  C   UNL     1     -10.521   9.351  71.079  0.00  0.00    +0.018 C 
ATOM      4  C   UNL     1      -9.703   8.547  69.893  0.00  0.00    +0.004 C 
ATOM      5  C   UNL     1      -9.266   7.328  70.572  0.00  0.00    +0.000 C 
ATOM      6  C   UNL     1      -9.912   7.421  72.072  0.00  0.00    +0.000 C 
ATOM      7  C   UNL     1     -11.323   7.954  71.470  0.00  0.00    +0.003 C 
ATOM      8  C   UNL     1     -11.685   7.255  70.289  0.00  0.00    +0.000 C 
ATOM      9  C   UNL     1     -12.203   8.429  72.500  0.00  0.00    +0.001 C 
ATOM     10  C   UNL     1     -13.212   9.386  71.990  0.00  0.00    +0.004 C 
ATOM     11  C   UNL     1     -12.775  10.330  70.929  0.00  0.00    +0.022 C 
ENDROOT
BRANCH   1  15
ATOM     12  C   UNL     1     -10.566  10.496  66.882  0.00  0.00    -0.005 C 
ATOM     13  C   UNL     1     -10.593  11.529  66.703  0.00  0.00    -0.026 C 
ATOM     14  C   UNL     1     -11.334  12.415  67.632  0.00  0.00    -0.024 C 
ATOM     15  C   UNL     1     -11.754  11.951  68.807  0.00  0.00    -0.005 C 
ATOM     16  C   UNL     1     -11.213  13.818  67.243  0.00  0.00    +0.059 C 
ATOM     17  C   UNL     1     -12.310  14.068  65.998  0.00  0.00    +0.157 C 
ATOM     18  O   UNL     1     -11.194  14.580  65.060  0.00  0.00    -0.223 OA
ATOM     19  C   UNL     1     -12.196  12.519  65.360  0.00  0.00    +0.038 C 
ATOM     20  C   UNL     1     -10.730  12.199  65.358  0.00  0.00    +0.029 C 
ENDBRANCH   1  15
BRANCH   6  21
ATOM     21  C   UNL     1     -10.344   5.758  72.017  0.00  0.00    +0.000 C 
ATOM     22  C   UNL     1     -10.607   5.670  73.626  0.00  0.00    +0.000 C 
BRANCH  21  23
ATOM     23  C   UNL     1      -8.776   5.312  72.150  0.00  0.00    +0.000 C 
BRANCH  23  24
ATOM     24  C   UNL     1      -8.616   3.976  71.563  0.00  0.00    +0.003 C 
BRANCH  24  25
ATOM     25  C   UNL     1      -9.586   3.513  70.552  0.00  0.00    +0.030 C 
BRANCH  25  26
ATOM     26  C   UNL     1      -9.018   3.490  69.168  0.00  0.00    +0.127 C 
ATOM     27  O   UNL     1      -7.662   3.742  69.126  0.00  0.00    -0.226 OA
ATOM     28  C   UNL     1      -9.313   2.088  68.645  0.00  0.00    +0.033 C 
ATOM     29  C   UNL     1      -9.744   4.521  68.334  0.00  0.00    +0.033 C 
ENDBRANCH  25  26
ENDBRANCH  24  25
ENDBRANCH  23  24
ENDBRANCH  21  23
ENDBRANCH   6  21
TORSDOF 6
ENDMDL
MODEL 8
REMARK VINA RESULT:      -6.3      3.739      9.992
REMARK  Name = 
REMARK  6 active torsions:
REMARK  status: ('A' for Active; 'I' for Inactive)
REMARK    1  A    between atoms: C_9  and  C_10
REMARK    2  A    between atoms: C_20  and  C_21
REMARK    3  A    between atoms: C_21  and  C_23
REMARK    4  A    between atoms: C_23  and  C_24
REMARK    5  A    between atoms: C_24  and  C_25
REMARK    6  A    between atoms: C_25  and  C_26
REMARK                            x       y       z     vdW  Elec       q    Type
REMARK                         _______ _______ _______ _____ _____    ______ ____
ROOT
ATOM      1  C   UNL     1     -11.928  12.046  70.243  0.00  0.00    -0.009 C 
ATOM      2  C   UNL     1     -11.824  13.354  70.299  0.00  0.00    -0.045 C 
ATOM      3  C   UNL     1     -11.944  13.956  68.789  0.00  0.00    +0.018 C 
ATOM      4  C   UNL     1     -10.520  13.263  68.325  0.00  0.00    +0.004 C 
ATOM      5  C   UNL     1      -9.902  14.311  67.513  0.00  0.00    +0.000 C 
ATOM      6  C   UNL     1     -10.925  15.584  67.609  0.00  0.00    +0.000 C 
ATOM      7  C   UNL     1     -11.134  15.342  69.201  0.00  0.00    +0.003 C 
ATOM      8  C   UNL     1      -9.911  15.016  69.845  0.00  0.00    +0.000 C 
ATOM      9  C   UNL     1     -12.207  16.134  69.730  0.00  0.00    +0.001 C 
ATOM     10  C   UNL     1     -12.771  15.568  70.978  0.00  0.00    +0.004 C 
ATOM     11  C   UNL     1     -12.858  14.087  71.071  0.00  0.00    +0.022 C 
ENDROOT
BRANCH   1  15
ATOM     12  C   UNL     1     -10.576  10.093  70.096  0.00  0.00    -0.005 C 
ATOM     13  C   UNL     1     -11.348   9.423  70.328  0.00  0.00    -0.026 C 
ATOM     14  C   UNL     1     -12.575   9.921  70.997  0.00  0.00    -0.024 C 
ATOM     15  C   UNL     1     -12.806  11.229  71.083  0.00  0.00    -0.005 C 
ATOM     16  C   UNL     1     -13.549   8.850  71.191  0.00  0.00    +0.059 C 
ATOM     17  C   UNL     1     -13.058   7.992  72.548  0.00  0.00    +0.157 C 
ATOM     18  O   UNL     1     -13.015   6.670  71.749  0.00  0.00    -0.223 OA
ATOM     19  C   UNL     1     -11.414   8.237  72.314  0.00  0.00    +0.038 C 
ATOM     20  C   UNL     1     -11.184   8.016  70.849  0.00  0.00    +0.029 C 
ENDBRANCH   1  15
BRANCH   6  21
ATOM     21  C   UNL     1      -9.601  16.666  67.794  0.00  0.00    +0.000 C 
ATOM     22  C   UNL     1     -10.480  17.972  67.359  0.00  0.00    +0.000 C 
BRANCH  21  23
ATOM     23  C   UNL     1      -9.103  16.371  66.265  0.00  0.00    +0.000 C 
BRANCH  23  24
ATOM     24  C   UNL     1      -7.864  17.120  66.022  0.00  0.00    +0.003 C 
BRANCH  24  25
ATOM     25  C   UNL     1      -6.902  17.299  67.126  0.00  0.00    +0.030 C 
BRANCH  25  26
ATOM     26  C   UNL     1      -6.499  18.727  67.320  0.00  0.00    +0.127 C 
ATOM     27  O   UNL     1      -5.133  18.923  67.276  0.00  0.00    -0.226 OA
ATOM     28  C   UNL     1      -7.180  19.486  66.186  0.00  0.00    +0.033 C 
ATOM     29  C   UNL     1      -7.029  19.199  68.654  0.00  0.00    +0.033 C 
ENDBRANCH  25  26
ENDBRANCH  24  25
ENDBRANCH  23  24
ENDBRANCH  21  23
ENDBRANCH   6  21
TORSDOF 6
ENDMDL
MODEL 9
REMARK VINA RESULT:      -6.3      7.143     11.021
REMARK  Name = 
REMARK  6 active torsions:
REMARK  status: ('A' for Active; 'I' for Inactive)
REMARK    1  A    between atoms: C_9  and  C_10
REMARK    2  A    between atoms: C_20  and  C_21
REMARK    3  A    between atoms: C_21  and  C_23
REMARK    4  A    between atoms: C_23  and  C_24
REMARK    5  A    between atoms: C_24  and  C_25
REMARK    6  A    between atoms: C_25  and  C_26
REMARK                            x       y       z     vdW  Elec       q    Type
REMARK                         _______ _______ _______ _____ _____    ______ ____
ROOT
ATOM      1  C   UNL     1     -11.264  10.685  69.039  0.00  0.00    -0.009 C 
ATOM      2  C   UNL     1     -11.736   9.879  69.962  0.00  0.00    -0.045 C 
ATOM      3  C   UNL     1     -10.533   9.503  70.996  0.00  0.00    +0.018 C 
ATOM      4  C   UNL     1      -9.707   8.666  69.838  0.00  0.00    +0.004 C 
ATOM      5  C   UNL     1      -9.221   7.498  70.572  0.00  0.00    +0.000 C 
ATOM      6  C   UNL     1      -9.847   7.647  72.075  0.00  0.00    +0.000 C 
ATOM      7  C   UNL     1     -11.284   8.103  71.470  0.00  0.00    +0.003 C 
ATOM      8  C   UNL     1     -11.640   7.334  70.331  0.00  0.00    +0.000 C 
ATOM      9  C   UNL     1     -12.164   8.601  72.488  0.00  0.00    +0.001 C 
ATOM     10  C   UNL     1     -13.211   9.499  71.946  0.00  0.00    +0.004 C 
ATOM     11  C   UNL     1     -12.820  10.401  70.832  0.00  0.00    +0.022 C 
ENDROOT
BRANCH   1  15
ATOM     12  C   UNL     1     -10.552  10.501  66.775  0.00  0.00    -0.005 C 
ATOM     13  C   UNL     1     -10.621  11.527  66.568  0.00  0.00    -0.026 C 
ATOM     14  C   UNL     1     -11.440  12.398  67.445  0.00  0.00    -0.024 C 
ATOM     15  C   UNL     1     -11.883  11.943  68.615  0.00  0.00    -0.005 C 
ATOM     16  C   UNL     1     -11.372  13.795  67.024  0.00  0.00    +0.059 C 
ATOM     17  C   UNL     1     -12.430  13.960  65.731  0.00  0.00    +0.157 C 
ATOM     18  O   UNL     1     -11.304  14.503  64.823  0.00  0.00    -0.223 OA
ATOM     19  C   UNL     1     -12.216  12.404  65.139  0.00  0.00    +0.038 C 
ATOM     20  C   UNL     1     -10.738  12.156  65.202  0.00  0.00    +0.029 C 
ENDBRANCH   1  15
BRANCH   6  21
ATOM     21  C   UNL     1     -10.226   5.970  72.110  0.00  0.00    +0.000 C 
ATOM     22  C   UNL     1     -10.519   5.969  73.717  0.00  0.00    +0.000 C 
BRANCH  21  23
ATOM     23  C   UNL     1      -8.648   5.583  72.299  0.00  0.00    +0.000 C 
BRANCH  23  24
ATOM     24  C   UNL     1      -8.481   4.149  72.035  0.00  0.00    +0.003 C 
BRANCH  24  25
ATOM     25  C   UNL     1      -9.601   3.389  71.449  0.00  0.00    +0.030 C 
BRANCH  25  26
ATOM     26  C   UNL     1      -9.851   2.089  72.148  0.00  0.00    +0.127 C 
ATOM     27  O   UNL     1     -10.207   1.066  71.294  0.00  0.00    -0.226 OA
ATOM     28  C   UNL     1      -8.537   1.761  72.849  0.00  0.00    +0.033 C 
ATOM     29  C   UNL     1     -10.948   2.295  73.167  0.00  0.00    +0.033 C 
ENDBRANCH  25  26
ENDBRANCH  24  25
ENDBRANCH  23  24
ENDBRANCH  21  23
ENDBRANCH   6  21
TORSDOF 6
ENDMDL
