MODEL 1
REMARK VINA RESULT:      -5.3      0.000      0.000
REMARK  Name = 
REMARK  1 active torsions:
REMARK  status: ('A' for Active; 'I' for Inactive)
REMARK    1  A    between atoms: C_8  and  S_9
REMARK                            x       y       z     vdW  Elec       q    Type
REMARK                         _______ _______ _______ _____ _____    ______ ____
ROOT
ATOM      1  C   UNL     1     -12.087  14.382  64.955  0.00  0.00    +0.097 C 
ATOM      2  C   UNL     1     -11.228  14.710  66.122  0.00  0.00    +0.248 C 
ATOM      3  N   UNL     1     -11.128  13.889  67.280  0.00  0.00    -0.153 NA
ATOM      4  C   UNL     1     -11.367  14.388  68.602  0.00  0.00    +0.209 A 
ATOM      5  S   UNL     1     -12.041  13.562  69.951  0.00  0.00    -0.009 S 
ATOM      6  C   UNL     1     -12.573  14.948  70.818  0.00  0.00    +0.259 A 
ATOM      7  N   UNL     1     -12.396  15.880  69.876  0.00  0.00    -0.119 NA
ATOM      8  N   UNL     1     -11.406  15.637  69.066  0.00  0.00    -0.122 NA
ATOM      9  O   UNL     1     -10.834  15.889  66.262  0.00  0.00    -0.273 OA
ENDROOT
BRANCH   6  10
ATOM     10  S   UNL     1     -13.522  15.021  72.298  0.00  0.00    +0.118 S 
ATOM     11  O   UNL     1     -14.702  15.919  72.171  0.00  0.00    -0.148 OA
ATOM     12  O   UNL     1     -14.027  13.617  72.531  0.00  0.00    -0.148 OA
ATOM     13  N   UNL     1     -12.501  15.569  73.557  0.00  0.00    +0.041 NA
ENDBRANCH   6  10
TORSDOF 1
ENDMDL
MODEL 2
REMARK VINA RESULT:      -5.3      5.653      6.470
REMARK  Name = 
REMARK  1 active torsions:
REMARK  status: ('A' for Active; 'I' for Inactive)
REMARK    1  A    between atoms: C_8  and  S_9
REMARK                            x       y       z     vdW  Elec       q    Type
REMARK                         _______ _______ _______ _____ _____    ______ ____
ROOT
ATOM      1  C   UNL     1      -6.652  19.201  65.545  0.00  0.00    +0.097 C 
ATOM      2  C   UNL     1      -7.991  18.917  66.123  0.00  0.00    +0.248 C 
ATOM      3  N   UNL     1      -8.326  17.693  66.767  0.00  0.00    -0.153 NA
ATOM      4  C   UNL     1      -9.449  16.896  66.372  0.00  0.00    +0.209 A 
ATOM      5  S   UNL     1      -9.612  15.185  66.409  0.00  0.00    -0.009 S 
ATOM      6  C   UNL     1     -10.851  15.053  65.224  0.00  0.00    +0.259 A 
ATOM      7  N   UNL     1     -10.840  16.304  64.753  0.00  0.00    -0.119 NA
ATOM      8  N   UNL     1     -10.517  17.204  65.637  0.00  0.00    -0.122 NA
ATOM      9  O   UNL     1      -8.961  19.615  65.755  0.00  0.00    -0.273 OA
ENDROOT
BRANCH   6  10
ATOM     10  S   UNL     1     -11.547  13.599  64.518  0.00  0.00    +0.118 S 
ATOM     11  O   UNL     1     -12.533  13.904  63.446  0.00  0.00    -0.148 OA
ATOM     12  O   UNL     1     -10.392  12.855  63.892  0.00  0.00    -0.148 OA
ATOM     13  N   UNL     1     -12.299  12.708  65.771  0.00  0.00    +0.041 NA
ENDBRANCH   6  10
TORSDOF 1
ENDMDL
MODEL 3
REMARK VINA RESULT:      -5.2      2.930      6.316
REMARK  Name = 
REMARK  1 active torsions:
REMARK  status: ('A' for Active; 'I' for Inactive)
REMARK    1  A    between atoms: C_8  and  S_9
REMARK                            x       y       z     vdW  Elec       q    Type
REMARK                         _______ _______ _______ _____ _____    ______ ____
ROOT
ATOM      1  C   UNL     1     -13.604  14.726  71.509  0.00  0.00    +0.097 C 
ATOM      2  C   UNL     1     -12.455  14.049  70.855  0.00  0.00    +0.248 C 
ATOM      3  N   UNL     1     -11.708  14.621  69.788  0.00  0.00    -0.153 NA
ATOM      4  C   UNL     1     -11.509  13.948  68.538  0.00  0.00    +0.209 A 
ATOM      5  S   UNL     1     -11.370  14.632  66.967  0.00  0.00    -0.009 S 
ATOM      6  C   UNL     1     -11.822  13.232  66.075  0.00  0.00    +0.259 A 
ATOM      7  N   UNL     1     -12.264  12.465  67.077  0.00  0.00    -0.119 NA
ATOM      8  N   UNL     1     -11.654  12.665  68.209  0.00  0.00    -0.122 NA
ATOM      9  O   UNL     1     -12.330  12.812  70.998  0.00  0.00    -0.273 OA
ENDROOT
BRANCH   6  10
ATOM     10  S   UNL     1     -12.088  13.072  64.343  0.00  0.00    +0.118 S 
ATOM     11  O   UNL     1     -13.201  12.137  64.024  0.00  0.00    -0.148 OA
ATOM     12  O   UNL     1     -12.480  14.447  63.859  0.00  0.00    -0.148 OA
ATOM     13  N   UNL     1     -10.634  12.516  63.632  0.00  0.00    +0.041 NA
ENDBRANCH   6  10
TORSDOF 1
ENDMDL
MODEL 4
REMARK VINA RESULT:      -5.2      3.043      6.150
REMARK  Name = 
REMARK  1 active torsions:
REMARK  status: ('A' for Active; 'I' for Inactive)
REMARK    1  A    between atoms: C_8  and  S_9
REMARK                            x       y       z     vdW  Elec       q    Type
REMARK                         _______ _______ _______ _____ _____    ______ ____
ROOT
ATOM      1  C   UNL     1     -12.287  16.200  73.295  0.00  0.00    +0.097 C 
ATOM      2  C   UNL     1     -12.401  15.593  71.943  0.00  0.00    +0.248 C 
ATOM      3  N   UNL     1     -11.284  15.136  71.190  0.00  0.00    -0.153 NA
ATOM      4  C   UNL     1     -11.019  15.584  69.854  0.00  0.00    +0.209 A 
ATOM      5  S   UNL     1      -9.498  15.814  69.086  0.00  0.00    -0.009 S 
ATOM      6  C   UNL     1     -10.022  16.925  67.883  0.00  0.00    +0.259 A 
ATOM      7  N   UNL     1     -11.249  17.188  68.345  0.00  0.00    -0.119 NA
ATOM      8  N   UNL     1     -11.808  16.192  68.969  0.00  0.00    -0.122 NA
ATOM      9  O   UNL     1     -13.451  15.783  71.290  0.00  0.00    -0.273 OA
ENDROOT
BRANCH   6  10
ATOM     10  S   UNL     1      -9.055  17.812  66.710  0.00  0.00    +0.118 S 
ATOM     11  O   UNL     1      -8.262  16.910  65.832  0.00  0.00    -0.148 OA
ATOM     12  O   UNL     1     -10.042  18.557  65.845  0.00  0.00    -0.148 OA
ATOM     13  N   UNL     1      -8.011  18.862  67.569  0.00  0.00    +0.041 NA
ENDBRANCH   6  10
TORSDOF 1
ENDMDL
MODEL 5
REMARK VINA RESULT:      -5.2      2.316      6.002
REMARK  Name = 
REMARK  1 active torsions:
REMARK  status: ('A' for Active; 'I' for Inactive)
REMARK    1  A    between atoms: C_8  and  S_9
REMARK                            x       y       z     vdW  Elec       q    Type
REMARK                         _______ _______ _______ _____ _____    ______ ____
ROOT
ATOM      1  C   UNL     1     -14.382  15.221  71.922  0.00  0.00    +0.097 C 
ATOM      2  C   UNL     1     -13.095  14.654  71.443  0.00  0.00    +0.248 C 
ATOM      3  N   UNL     1     -12.132  15.400  70.708  0.00  0.00    -0.153 NA
ATOM      4  C   UNL     1     -11.627  14.968  69.438  0.00  0.00    +0.209 A 
ATOM      5  S   UNL     1     -11.138  15.930  68.099  0.00  0.00    -0.009 S 
ATOM      6  C   UNL     1     -11.333  14.732  66.881  0.00  0.00    +0.259 A 
ATOM      7  N   UNL     1     -11.980  13.800  67.590  0.00  0.00    -0.119 NA
ATOM      8  N   UNL     1     -11.660  13.773  68.851  0.00  0.00    -0.122 NA
ATOM      9  O   UNL     1     -12.977  13.410  71.378  0.00  0.00    -0.273 OA
ENDROOT
BRANCH   6  10
ATOM     10  S   UNL     1     -11.179  14.903  65.137  0.00  0.00    +0.118 S 
ATOM     11  O   UNL     1     -10.773  16.277  64.735  0.00  0.00    -0.148 OA
ATOM     12  O   UNL     1     -10.079  13.952  64.728  0.00  0.00    -0.148 OA
ATOM     13  N   UNL     1     -12.686  14.506  64.429  0.00  0.00    +0.041 NA
ENDBRANCH   6  10
TORSDOF 1
ENDMDL
MODEL 6
REMARK VINA RESULT:      -5.0      4.255      5.564
REMARK  Name = 
REMARK  1 active torsions:
REMARK  status: ('A' for Active; 'I' for Inactive)
REMARK    1  A    between atoms: C_8  and  S_9
REMARK                            x       y       z     vdW  Elec       q    Type
REMARK                         _______ _______ _______ _____ _____    ______ ____
ROOT
ATOM      1  C   UNL     1     -10.368  19.764  66.292  0.00  0.00    +0.097 C 
ATOM      2  C   UNL     1     -10.063  18.633  67.205  0.00  0.00    +0.248 C 
ATOM      3  N   UNL     1      -9.348  17.470  66.806  0.00  0.00    -0.153 NA
ATOM      4  C   UNL     1      -9.867  16.146  66.984  0.00  0.00    +0.209 A 
ATOM      5  S   UNL     1      -9.633  14.764  65.989  0.00  0.00    -0.009 S 
ATOM      6  C   UNL     1     -11.031  13.894  66.484  0.00  0.00    +0.259 A 
ATOM      7  N   UNL     1     -11.655  14.853  67.175  0.00  0.00    -0.119 NA
ATOM      8  N   UNL     1     -10.853  15.696  67.759  0.00  0.00    -0.122 NA
ATOM      9  O   UNL     1     -10.727  18.522  68.260  0.00  0.00    -0.273 OA
ENDROOT
BRANCH   6  10
ATOM     10  S   UNL     1     -11.667  12.381  65.848  0.00  0.00    +0.118 S 
ATOM     11  O   UNL     1     -10.645  11.612  65.086  0.00  0.00    -0.148 OA
ATOM     12  O   UNL     1     -12.063  11.564  67.054  0.00  0.00    -0.148 OA
ATOM     13  N   UNL     1     -12.998  12.748  64.837  0.00  0.00    +0.041 NA
ENDBRANCH   6  10
TORSDOF 1
ENDMDL
MODEL 7
REMARK VINA RESULT:      -4.9      4.677      6.345
REMARK  Name = 
REMARK  1 active torsions:
REMARK  status: ('A' for Active; 'I' for Inactive)
REMARK    1  A    between atoms: C_8  and  S_9
REMARK                            x       y       z     vdW  Elec       q    Type
REMARK                         _______ _______ _______ _____ _____    ______ ____
ROOT
ATOM      1  C   UNL     1      -7.221  18.988  68.065  0.00  0.00    +0.097 C 
ATOM      2  C   UNL     1      -8.615  18.979  67.551  0.00  0.00    +0.248 C 
ATOM      3  N   UNL     1      -9.595  18.028  67.952  0.00  0.00    -0.153 NA
ATOM      4  C   UNL     1     -10.321  17.226  67.012  0.00  0.00    +0.209 A 
ATOM      5  S   UNL     1     -10.901  15.618  67.203  0.00  0.00    -0.009 S 
ATOM      6  C   UNL     1     -11.007  15.221  65.533  0.00  0.00    +0.259 A 
ATOM      7  N   UNL     1     -10.361  16.270  65.014  0.00  0.00    -0.119 NA
ATOM      8  N   UNL     1     -10.495  17.370  65.699  0.00  0.00    -0.122 NA
ATOM      9  O   UNL     1      -8.866  19.598  66.493  0.00  0.00    -0.273 OA
ENDROOT
BRANCH   6  10
ATOM     10  S   UNL     1     -11.397  13.671  64.795  0.00  0.00    +0.118 S 
ATOM     11  O   UNL     1     -10.207  13.020  64.182  0.00  0.00    -0.148 OA
ATOM     12  O   UNL     1     -11.882  12.792  65.922  0.00  0.00    -0.148 OA
ATOM     13  N   UNL     1     -12.598  13.937  63.605  0.00  0.00    +0.041 NA
ENDBRANCH   6  10
TORSDOF 1
ENDMDL
MODEL 8
REMARK VINA RESULT:      -4.9      3.951      5.272
REMARK  Name = 
REMARK  1 active torsions:
REMARK  status: ('A' for Active; 'I' for Inactive)
REMARK    1  A    between atoms: C_8  and  S_9
REMARK                            x       y       z     vdW  Elec       q    Type
REMARK                         _______ _______ _______ _____ _____    ______ ____
ROOT
ATOM      1  C   UNL     1     -10.009   8.443  72.197  0.00  0.00    +0.097 C 
ATOM      2  C   UNL     1     -11.319   8.899  71.665  0.00  0.00    +0.248 C 
ATOM      3  N   UNL     1     -11.453   9.870  70.633  0.00  0.00    -0.153 NA
ATOM      4  C   UNL     1     -12.250  11.052  70.785  0.00  0.00    +0.209 A 
ATOM      5  S   UNL     1     -11.986  12.612  70.113  0.00  0.00    -0.009 S 
ATOM      6  C   UNL     1     -12.910  13.505  71.255  0.00  0.00    +0.259 A 
ATOM      7  N   UNL     1     -13.122  12.549  72.164  0.00  0.00    -0.119 NA
ATOM      8  N   UNL     1     -13.204  11.349  71.666  0.00  0.00    -0.122 NA
ATOM      9  O   UNL     1     -12.346   8.694  72.349  0.00  0.00    -0.273 OA
ENDROOT
BRANCH   6  10
ATOM     10  S   UNL     1     -13.079  15.250  71.407  0.00  0.00    +0.118 S 
ATOM     11  O   UNL     1     -14.500  15.675  71.529  0.00  0.00    -0.148 OA
ATOM     12  O   UNL     1     -12.370  15.620  72.688  0.00  0.00    -0.148 OA
ATOM     13  N   UNL     1     -12.367  15.975  70.030  0.00  0.00    +0.041 NA
ENDBRANCH   6  10
TORSDOF 1
ENDMDL
MODEL 9
REMARK VINA RESULT:      -4.9      4.191      6.470
REMARK  Name = 
REMARK  1 active torsions:
REMARK  status: ('A' for Active; 'I' for Inactive)
REMARK    1  A    between atoms: C_8  and  S_9
REMARK                            x       y       z     vdW  Elec       q    Type
REMARK                         _______ _______ _______ _____ _____    ______ ____
ROOT
ATOM      1  C   UNL     1     -13.192   9.707  71.516  0.00  0.00    +0.097 C 
ATOM      2  C   UNL     1     -11.987  10.059  70.721  0.00  0.00    +0.248 C 
ATOM      3  N   UNL     1     -11.660  11.388  70.335  0.00  0.00    -0.153 NA
ATOM      4  C   UNL     1     -11.422  11.758  68.971  0.00  0.00    +0.209 A 
ATOM      5  S   UNL     1     -11.769  13.252  68.193  0.00  0.00    -0.009 S 
ATOM      6  C   UNL     1     -11.820  12.655  66.580  0.00  0.00    +0.259 A 
ATOM      7  N   UNL     1     -11.806  11.342  66.830  0.00  0.00    -0.119 NA
ATOM      8  N   UNL     1     -11.147  11.011  67.903  0.00  0.00    -0.122 NA
ATOM      9  O   UNL     1     -11.411   9.153  70.078  0.00  0.00    -0.273 OA
ENDROOT
BRANCH   6  10
ATOM     10  S   UNL     1     -12.264  13.509  65.107  0.00  0.00    +0.118 S 
ATOM     11  O   UNL     1     -12.536  12.582  63.975  0.00  0.00    -0.148 OA
ATOM     12  O   UNL     1     -13.545  14.242  65.428  0.00  0.00    -0.148 OA
ATOM     13  N   UNL     1     -10.984  14.570  64.702  0.00  0.00    +0.041 NA
ENDBRANCH   6  10
TORSDOF 1
ENDMDL
