MODEL 1
REMARK VINA RESULT:      -6.6      0.000      0.000
REMARK  Name = 
REMARK  8 active torsions:
REMARK  status: ('A' for Active; 'I' for Inactive)
REMARK    1  A    between atoms: O_2  and  C_3
REMARK    2  A    between atoms: C_6  and  C_7
REMARK    3  A    between atoms: C_7  and  C_8
REMARK    4  A    between atoms: C_8  and  N_10
REMARK    5  A    between atoms: N_10  and  C_11
REMARK    6  A    between atoms: C_11  and  C_12
REMARK    7  A    between atoms: C_12  and  C_14
REMARK    8  A    between atoms: C_19  and  N_20
REMARK                            x       y       z     vdW  Elec       q    Type
REMARK                         _______ _______ _______ _____ _____    ______ ____
ROOT
ATOM      1  C   UNL     1     -10.629  12.465  65.987  0.00  0.00    +0.126 C 
ENDROOT
BRANCH   1   2
ATOM      2  C   UNL     1     -10.552  13.717  64.863  0.00  0.00    +0.192 C 
ATOM      3  O   UNL     1     -12.096  13.923  64.856  0.00  0.00    -0.217 OA
BRANCH   2   4
ATOM      4  C   UNL     1     -10.266  14.824  66.062  0.00  0.00    +0.011 A 
ATOM      5  C   UNL     1     -10.618  16.097  65.850  0.00  0.00    +0.018 A 
ATOM      6  C   UNL     1      -9.842  17.189  66.242  0.00  0.00    +0.112 A 
ATOM      7  C   UNL     1      -8.466  16.999  66.311  0.00  0.00    +0.211 A 
ATOM      8  O   UNL     1      -7.573  17.771  65.552  0.00  0.00    -0.285 OA
ATOM      9  C   UNL     1      -8.102  15.720  66.727  0.00  0.00    +0.043 A 
ATOM     10  C   UNL     1      -8.995  14.657  66.614  0.00  0.00    +0.002 A 
BRANCH   6  11
ATOM     11  N   UNL     1     -10.333  18.441  65.748  0.00  0.00    -0.168 NA
ATOM     12  C   UNL     1     -10.470  19.517  66.666  0.00  0.00    +0.325 C 
ATOM     13  O   UNL     1     -10.860  19.291  67.834  0.00  0.00    -0.263 OA
ENDBRANCH   6  11
ENDBRANCH   2   4
ENDBRANCH   1   2
BRANCH   1  14
ATOM     14  N   UNL     1     -11.858  12.486  66.607  0.00  0.00    -0.216 NA
BRANCH  14  15
ATOM     15  C   UNL     1     -11.837  11.555  67.902  0.00  0.00    +0.077 C 
ATOM     16  C   UNL     1     -10.577  10.621  67.329  0.00  0.00    +0.019 C 
BRANCH  15  17
ATOM     17  C   UNL     1     -10.784  12.602  68.666  0.00  0.00    +0.044 C 
BRANCH  17  21
ATOM     18  C   UNL     1     -13.131  14.914  71.420  0.00  0.00    +0.139 A 
ATOM     19  C   UNL     1     -12.938  13.555  71.580  0.00  0.00    +0.037 A 
ATOM     20  C   UNL     1     -12.410  12.809  70.541  0.00  0.00    -0.001 A 
ATOM     21  C   UNL     1     -11.648  13.416  69.550  0.00  0.00    -0.021 A 
ATOM     22  C   UNL     1     -11.807  14.778  69.422  0.00  0.00    -0.001 A 
ATOM     23  C   UNL     1     -12.485  15.530  70.369  0.00  0.00    +0.037 A 
BRANCH  18  25
ATOM     24  C   UNL     1     -13.077  16.069  73.483  0.00  0.00    +0.252 C 
ATOM     25  O   UNL     1     -13.810  15.670  72.377  0.00  0.00    -0.471 OA
ENDBRANCH  18  25
ENDBRANCH  17  21
ENDBRANCH  15  17
ENDBRANCH  14  15
ENDBRANCH   1  14
TORSDOF 8
ENDMDL
MODEL 2
REMARK VINA RESULT:      -6.1      2.863      5.304
REMARK  Name = 
REMARK  8 active torsions:
REMARK  status: ('A' for Active; 'I' for Inactive)
REMARK    1  A    between atoms: O_2  and  C_3
REMARK    2  A    between atoms: C_6  and  C_7
REMARK    3  A    between atoms: C_7  and  C_8
REMARK    4  A    between atoms: C_8  and  N_10
REMARK    5  A    between atoms: N_10  and  C_11
REMARK    6  A    between atoms: C_11  and  C_12
REMARK    7  A    between atoms: C_12  and  C_14
REMARK    8  A    between atoms: C_19  and  N_20
REMARK                            x       y       z     vdW  Elec       q    Type
REMARK                         _______ _______ _______ _____ _____    ______ ____
ROOT
ATOM      1  C   UNL     1     -11.071  14.416  66.128  0.00  0.00    +0.126 C 
ENDROOT
BRANCH   1   2
ATOM      2  C   UNL     1     -12.678  14.206  65.672  0.00  0.00    +0.192 C 
ATOM      3  O   UNL     1     -12.420  14.692  64.214  0.00  0.00    -0.217 OA
BRANCH   2   4
ATOM      4  C   UNL     1     -12.412  12.605  65.338  0.00  0.00    +0.011 A 
ATOM      5  C   UNL     1     -11.292  12.036  65.798  0.00  0.00    +0.018 A 
ATOM      6  C   UNL     1     -10.527  11.130  65.062  0.00  0.00    +0.112 A 
ATOM      7  C   UNL     1     -10.560  11.247  63.677  0.00  0.00    +0.211 A 
ATOM      8  O   UNL     1      -9.397  11.473  62.925  0.00  0.00    -0.285 OA
ATOM      9  C   UNL     1     -11.798  11.652  63.184  0.00  0.00    +0.043 A 
ATOM     10  C   UNL     1     -12.710  12.308  64.008  0.00  0.00    +0.002 A 
BRANCH   6  11
ATOM     11  N   UNL     1      -9.282  10.798  65.689  0.00  0.00    -0.168 NA
ATOM     12  C   UNL     1      -9.033   9.435  66.007  0.00  0.00    +0.325 C 
ATOM     13  O   UNL     1      -9.969   8.713  66.418  0.00  0.00    -0.263 OA
ENDBRANCH   6  11
ENDBRANCH   2   4
ENDBRANCH   1   2
BRANCH   1  14
ATOM     14  N   UNL     1     -10.998  15.388  67.101  0.00  0.00    -0.216 NA
BRANCH  14  15
ATOM     15  C   UNL     1     -10.417  14.771  68.452  0.00  0.00    +0.077 C 
ATOM     16  C   UNL     1      -9.855  16.246  68.998  0.00  0.00    +0.019 C 
BRANCH  15  17
ATOM     17  C   UNL     1     -11.887  14.989  69.212  0.00  0.00    +0.044 C 
BRANCH  17  21
ATOM     18  C   UNL     1     -12.766  11.378  71.363  0.00  0.00    +0.139 A 
ATOM     19  C   UNL     1     -13.205  12.616  71.794  0.00  0.00    +0.037 A 
ATOM     20  C   UNL     1     -12.681  13.765  71.230  0.00  0.00    -0.001 A 
ATOM     21  C   UNL     1     -12.104  13.734  69.966  0.00  0.00    -0.021 A 
ATOM     22  C   UNL     1     -11.709  12.493  69.518  0.00  0.00    -0.001 A 
ATOM     23  C   UNL     1     -12.080  11.326  70.168  0.00  0.00    +0.037 A 
BRANCH  18  25
ATOM     24  C   UNL     1     -12.355   9.089  71.788  0.00  0.00    +0.252 C 
ATOM     25  O   UNL     1     -13.145  10.204  72.016  0.00  0.00    -0.471 OA
ENDBRANCH  18  25
ENDBRANCH  17  21
ENDBRANCH  15  17
ENDBRANCH  14  15
ENDBRANCH   1  14
TORSDOF 8
ENDMDL
MODEL 3
REMARK VINA RESULT:      -6.1      3.662      7.082
REMARK  Name = 
REMARK  8 active torsions:
REMARK  status: ('A' for Active; 'I' for Inactive)
REMARK    1  A    between atoms: O_2  and  C_3
REMARK    2  A    between atoms: C_6  and  C_7
REMARK    3  A    between atoms: C_7  and  C_8
REMARK    4  A    between atoms: C_8  and  N_10
REMARK    5  A    between atoms: N_10  and  C_11
REMARK    6  A    between atoms: C_11  and  C_12
REMARK    7  A    between atoms: C_12  and  C_14
REMARK    8  A    between atoms: C_19  and  N_20
REMARK                            x       y       z     vdW  Elec       q    Type
REMARK                         _______ _______ _______ _____ _____    ______ ____
ROOT
ATOM      1  C   UNL     1     -10.230  11.955  68.476  0.00  0.00    +0.126 C 
ENDROOT
BRANCH   1   2
ATOM      2  C   UNL     1     -11.468  10.814  68.461  0.00  0.00    +0.192 C 
ATOM      3  O   UNL     1     -10.502   9.641  68.115  0.00  0.00    -0.217 OA
BRANCH   2   4
ATOM      4  C   UNL     1     -11.354  10.615  70.101  0.00  0.00    +0.011 A 
ATOM      5  C   UNL     1     -11.195   9.377  70.583  0.00  0.00    +0.018 A 
ATOM      6  C   UNL     1     -11.837   8.906  71.729  0.00  0.00    +0.112 A 
ATOM      7  C   UNL     1     -13.068   9.470  72.046  0.00  0.00    +0.211 A 
ATOM      8  O   UNL     1     -14.232   8.694  72.155  0.00  0.00    -0.285 OA
ATOM      9  C   UNL     1     -13.160  10.821  71.721  0.00  0.00    +0.043 A 
ATOM     10  C   UNL     1     -12.306  11.382  70.773  0.00  0.00    +0.002 A 
BRANCH   6  11
ATOM     11  N   UNL     1     -11.655   7.501  71.945  0.00  0.00    -0.168 NA
ATOM     12  C   UNL     1     -10.917   7.087  73.087  0.00  0.00    +0.325 C 
ATOM     13  O   UNL     1      -9.919   7.748  73.453  0.00  0.00    -0.263 OA
ENDBRANCH   6  11
ENDBRANCH   2   4
ENDBRANCH   1   2
BRANCH   1  14
ATOM     14  N   UNL     1     -10.631  13.071  67.775  0.00  0.00    -0.216 NA
BRANCH  14  15
ATOM     15  C   UNL     1     -10.538  14.366  68.702  0.00  0.00    +0.077 C 
ATOM     16  C   UNL     1     -10.477  15.411  67.400  0.00  0.00    +0.019 C 
BRANCH  15  17
ATOM     17  C   UNL     1     -12.202  14.465  68.772  0.00  0.00    +0.044 C 
BRANCH  17  21
ATOM     18  C   UNL     1     -13.025  15.940  72.719  0.00  0.00    +0.139 A 
ATOM     19  C   UNL     1     -13.924  15.149  72.028  0.00  0.00    +0.037 A 
ATOM     20  C   UNL     1     -13.741  14.922  70.676  0.00  0.00    -0.001 A 
ATOM     21  C   UNL     1     -12.483  15.055  70.100  0.00  0.00    -0.021 A 
ATOM     22  C   UNL     1     -11.573  15.805  70.812  0.00  0.00    -0.001 A 
ATOM     23  C   UNL     1     -11.809  16.195  72.122  0.00  0.00    +0.037 A 
BRANCH  18  25
ATOM     24  C   UNL     1     -12.388  15.835  74.994  0.00  0.00    +0.252 C 
ATOM     25  O   UNL     1     -13.263  16.328  74.039  0.00  0.00    -0.471 OA
ENDBRANCH  18  25
ENDBRANCH  17  21
ENDBRANCH  15  17
ENDBRANCH  14  15
ENDBRANCH   1  14
TORSDOF 8
ENDMDL
MODEL 4
REMARK VINA RESULT:      -6.1      2.460      5.131
REMARK  Name = 
REMARK  8 active torsions:
REMARK  status: ('A' for Active; 'I' for Inactive)
REMARK    1  A    between atoms: O_2  and  C_3
REMARK    2  A    between atoms: C_6  and  C_7
REMARK    3  A    between atoms: C_7  and  C_8
REMARK    4  A    between atoms: C_8  and  N_10
REMARK    5  A    between atoms: N_10  and  C_11
REMARK    6  A    between atoms: C_11  and  C_12
REMARK    7  A    between atoms: C_12  and  C_14
REMARK    8  A    between atoms: C_19  and  N_20
REMARK                            x       y       z     vdW  Elec       q    Type
REMARK                         _______ _______ _______ _____ _____    ______ ____
ROOT
ATOM      1  C   UNL     1     -10.567  14.427  64.931  0.00  0.00    +0.126 C 
ENDROOT
BRANCH   1   2
ATOM      2  C   UNL     1     -12.213  14.326  65.273  0.00  0.00    +0.192 C 
ATOM      3  O   UNL     1     -12.624  14.543  63.785  0.00  0.00    -0.217 OA
BRANCH   2   4
ATOM      4  C   UNL     1     -12.170  12.673  65.170  0.00  0.00    +0.011 A 
ATOM      5  C   UNL     1     -11.333  12.006  65.972  0.00  0.00    +0.018 A 
ATOM      6  C   UNL     1     -10.585  10.901  65.561  0.00  0.00    +0.112 A 
ATOM      7  C   UNL     1     -10.237  10.833  64.217  0.00  0.00    +0.211 A 
ATOM      8  O   UNL     1      -8.898  10.772  63.801  0.00  0.00    -0.285 OA
ATOM      9  C   UNL     1     -11.208  11.353  63.365  0.00  0.00    +0.043 A 
ATOM     10  C   UNL     1     -12.164  12.248  63.841  0.00  0.00    +0.002 A 
BRANCH   6  11
ATOM     11  N   UNL     1      -9.628  10.470  66.536  0.00  0.00    -0.168 NA
ATOM     12  C   UNL     1      -9.641   9.104  66.931  0.00  0.00    +0.325 C 
ATOM     13  O   UNL     1     -10.732   8.503  67.051  0.00  0.00    -0.263 OA
ENDBRANCH   6  11
ENDBRANCH   2   4
ENDBRANCH   1   2
BRANCH   1  14
ATOM     14  N   UNL     1     -10.036  15.522  65.575  0.00  0.00    -0.216 NA
BRANCH  14  15
ATOM     15  C   UNL     1      -9.347  15.076  66.943  0.00  0.00    +0.077 C 
ATOM     16  C   UNL     1      -8.018  16.061  66.707  0.00  0.00    +0.019 C 
BRANCH  15  17
ATOM     17  C   UNL     1     -10.158  16.277  67.770  0.00  0.00    +0.044 C 
BRANCH  17  21
ATOM     18  C   UNL     1     -12.345  14.358  70.929  0.00  0.00    +0.139 A 
ATOM     19  C   UNL     1     -12.086  15.716  70.933  0.00  0.00    +0.037 A 
ATOM     20  C   UNL     1     -11.161  16.242  70.050  0.00  0.00    -0.001 A 
ATOM     21  C   UNL     1     -10.840  15.569  68.877  0.00  0.00    -0.021 A 
ATOM     22  C   UNL     1     -11.140  14.225  68.856  0.00  0.00    -0.001 A 
ATOM     23  C   UNL     1     -11.930  13.634  69.832  0.00  0.00    +0.037 A 
BRANCH  18  25
ATOM     24  C   UNL     1     -14.430  14.263  72.041  0.00  0.00    +0.252 C 
ATOM     25  O   UNL     1     -13.143  13.766  71.909  0.00  0.00    -0.471 OA
ENDBRANCH  18  25
ENDBRANCH  17  21
ENDBRANCH  15  17
ENDBRANCH  14  15
ENDBRANCH   1  14
TORSDOF 8
ENDMDL
MODEL 5
REMARK VINA RESULT:      -6.0      2.350      5.488
REMARK  Name = 
REMARK  8 active torsions:
REMARK  status: ('A' for Active; 'I' for Inactive)
REMARK    1  A    between atoms: O_2  and  C_3
REMARK    2  A    between atoms: C_6  and  C_7
REMARK    3  A    between atoms: C_7  and  C_8
REMARK    4  A    between atoms: C_8  and  N_10
REMARK    5  A    between atoms: N_10  and  C_11
REMARK    6  A    between atoms: C_11  and  C_12
REMARK    7  A    between atoms: C_12  and  C_14
REMARK    8  A    between atoms: C_19  and  N_20
REMARK                            x       y       z     vdW  Elec       q    Type
REMARK                         _______ _______ _______ _____ _____    ______ ____
ROOT
ATOM      1  C   UNL     1     -12.003  13.422  68.549  0.00  0.00    +0.126 C 
ENDROOT
BRANCH   1   2
ATOM      2  C   UNL     1     -10.978  12.097  68.371  0.00  0.00    +0.192 C 
ATOM      3  O   UNL     1     -12.123  11.168  67.866  0.00  0.00    -0.217 OA
BRANCH   2   4
ATOM      4  C   UNL     1     -10.527  12.603  66.860  0.00  0.00    +0.011 A 
ATOM      5  C   UNL     1     -11.226  13.588  66.282  0.00  0.00    +0.018 A 
ATOM      6  C   UNL     1     -11.566  13.603  64.929  0.00  0.00    +0.112 A 
ATOM      7  C   UNL     1     -11.716  12.373  64.296  0.00  0.00    +0.211 A 
ATOM      8  O   UNL     1     -12.919  11.999  63.680  0.00  0.00    -0.285 OA
ATOM      9  C   UNL     1     -10.842  11.396  64.769  0.00  0.00    +0.043 A 
ATOM     10  C   UNL     1     -10.251  11.520  66.024  0.00  0.00    +0.002 A 
BRANCH   6  11
ATOM     11  N   UNL     1     -12.467  14.662  64.582  0.00  0.00    -0.168 NA
ATOM     12  C   UNL     1     -11.915  15.895  64.141  0.00  0.00    +0.325 C 
ATOM     13  O   UNL     1     -10.866  16.329  64.668  0.00  0.00    -0.263 OA
ENDBRANCH   6  11
ENDBRANCH   2   4
ENDBRANCH   1   2
BRANCH   1  14
ATOM     14  N   UNL     1     -11.821  13.973  69.798  0.00  0.00    -0.216 NA
BRANCH  14  15
ATOM     15  C   UNL     1     -11.706  15.560  69.687  0.00  0.00    +0.077 C 
ATOM     16  C   UNL     1     -11.698  15.772  71.344  0.00  0.00    +0.019 C 
BRANCH  15  17
ATOM     17  C   UNL     1     -10.040  15.460  69.638  0.00  0.00    +0.044 C 
BRANCH  17  21
ATOM     18  C   UNL     1      -8.831  18.266  66.621  0.00  0.00    +0.139 A 
ATOM     19  C   UNL     1      -9.862  18.533  67.503  0.00  0.00    +0.037 A 
ATOM     20  C   UNL     1     -10.391  17.512  68.271  0.00  0.00    -0.001 A 
ATOM     21  C   UNL     1      -9.647  16.368  68.538  0.00  0.00    -0.021 A 
ATOM     22  C   UNL     1      -8.592  16.127  67.686  0.00  0.00    -0.001 A 
ATOM     23  C   UNL     1      -8.148  17.080  66.780  0.00  0.00    +0.037 A 
BRANCH  18  25
ATOM     24  C   UNL     1      -7.034  19.540  65.761  0.00  0.00    +0.252 C 
ATOM     25  O   UNL     1      -8.383  19.227  65.714  0.00  0.00    -0.471 OA
ENDBRANCH  18  25
ENDBRANCH  17  21
ENDBRANCH  15  17
ENDBRANCH  14  15
ENDBRANCH   1  14
TORSDOF 8
ENDMDL
MODEL 6
REMARK VINA RESULT:      -6.0      2.905      3.970
REMARK  Name = 
REMARK  8 active torsions:
REMARK  status: ('A' for Active; 'I' for Inactive)
REMARK    1  A    between atoms: O_2  and  C_3
REMARK    2  A    between atoms: C_6  and  C_7
REMARK    3  A    between atoms: C_7  and  C_8
REMARK    4  A    between atoms: C_8  and  N_10
REMARK    5  A    between atoms: N_10  and  C_11
REMARK    6  A    between atoms: C_11  and  C_12
REMARK    7  A    between atoms: C_12  and  C_14
REMARK    8  A    between atoms: C_19  and  N_20
REMARK                            x       y       z     vdW  Elec       q    Type
REMARK                         _______ _______ _______ _____ _____    ______ ____
ROOT
ATOM      1  C   UNL     1     -10.673  12.621  64.211  0.00  0.00    +0.126 C 
ENDROOT
BRANCH   1   2
ATOM      2  C   UNL     1     -12.157  13.159  63.625  0.00  0.00    +0.192 C 
ATOM      3  O   UNL     1     -12.968  12.196  64.544  0.00  0.00    -0.217 OA
BRANCH   2   4
ATOM      4  C   UNL     1     -12.165  14.421  64.698  0.00  0.00    +0.011 A 
ATOM      5  C   UNL     1     -11.097  15.225  64.743  0.00  0.00    +0.018 A 
ATOM      6  C   UNL     1     -10.556  15.727  65.928  0.00  0.00    +0.112 A 
ATOM      7  C   UNL     1     -10.721  14.960  67.077  0.00  0.00    +0.211 A 
ATOM      8  O   UNL     1      -9.625  14.494  67.819  0.00  0.00    -0.285 OA
ATOM      9  C   UNL     1     -11.932  14.274  67.117  0.00  0.00    +0.043 A 
ATOM     10  C   UNL     1     -12.644  14.023  65.947  0.00  0.00    +0.002 A 
BRANCH   6  11
ATOM     11  N   UNL     1      -9.313  16.413  65.739  0.00  0.00    -0.168 NA
ATOM     12  C   UNL     1      -9.123  17.654  66.406  0.00  0.00    +0.325 C 
ATOM     13  O   UNL     1     -10.082  18.450  66.520  0.00  0.00    -0.263 OA
ENDBRANCH   6  11
ENDBRANCH   2   4
ENDBRANCH   1   2
BRANCH   1  14
ATOM     14  N   UNL     1     -10.342  11.437  63.591  0.00  0.00    -0.216 NA
BRANCH  14  15
ATOM     15  C   UNL     1     -10.029  10.315  64.681  0.00  0.00    +0.077 C 
ATOM     16  C   UNL     1      -8.456  10.108  64.158  0.00  0.00    +0.019 C 
BRANCH  15  17
ATOM     17  C   UNL     1      -9.566  11.481  65.782  0.00  0.00    +0.044 C 
BRANCH  17  21
ATOM     18  C   UNL     1     -10.514  10.031  69.711  0.00  0.00    +0.139 A 
ATOM     19  C   UNL     1      -9.211  10.156  69.269  0.00  0.00    +0.037 A 
ATOM     20  C   UNL     1      -8.959  10.366  67.926  0.00  0.00    -0.001 A 
ATOM     21  C   UNL     1      -9.934  10.913  67.099  0.00  0.00    -0.021 A 
ATOM     22  C   UNL     1     -11.228  10.829  67.562  0.00  0.00    -0.001 A 
ATOM     23  C   UNL     1     -11.518  10.451  68.865  0.00  0.00    +0.037 A 
BRANCH  18  25
ATOM     24  C   UNL     1     -12.116   9.822  71.439  0.00  0.00    +0.252 C 
ATOM     25  O   UNL     1     -10.804   9.655  71.024  0.00  0.00    -0.471 OA
ENDBRANCH  18  25
ENDBRANCH  17  21
ENDBRANCH  15  17
ENDBRANCH  14  15
ENDBRANCH   1  14
TORSDOF 8
ENDMDL
MODEL 7
REMARK VINA RESULT:      -6.0      2.400      4.158
REMARK  Name = 
REMARK  8 active torsions:
REMARK  status: ('A' for Active; 'I' for Inactive)
REMARK    1  A    between atoms: O_2  and  C_3
REMARK    2  A    between atoms: C_6  and  C_7
REMARK    3  A    between atoms: C_7  and  C_8
REMARK    4  A    between atoms: C_8  and  N_10
REMARK    5  A    between atoms: N_10  and  C_11
REMARK    6  A    between atoms: C_11  and  C_12
REMARK    7  A    between atoms: C_12  and  C_14
REMARK    8  A    between atoms: C_19  and  N_20
REMARK                            x       y       z     vdW  Elec       q    Type
REMARK                         _______ _______ _______ _____ _____    ______ ____
ROOT
ATOM      1  C   UNL     1     -11.539  14.771  65.200  0.00  0.00    +0.126 C 
ENDROOT
BRANCH   1   2
ATOM      2  C   UNL     1      -9.999  15.434  65.047  0.00  0.00    +0.192 C 
ATOM      3  O   UNL     1     -10.528  16.899  65.101  0.00  0.00    -0.217 OA
BRANCH   2   4
ATOM      4  C   UNL     1      -9.746  15.314  66.680  0.00  0.00    +0.011 A 
ATOM      5  C   UNL     1     -10.799  15.422  67.498  0.00  0.00    +0.018 A 
ATOM      6  C   UNL     1     -10.770  16.116  68.708  0.00  0.00    +0.112 A 
ATOM      7  C   UNL     1      -9.877  17.178  68.811  0.00  0.00    +0.211 A 
ATOM      8  O   UNL     1     -10.308  18.483  69.096  0.00  0.00    -0.285 OA
ATOM      9  C   UNL     1      -8.689  16.974  68.113  0.00  0.00    +0.043 A 
ATOM     10  C   UNL     1      -8.626  16.047  67.075  0.00  0.00    +0.002 A 
BRANCH   6  11
ATOM     11  N   UNL     1     -12.059  16.249  69.318  0.00  0.00    -0.168 NA
ATOM     12  C   UNL     1     -12.272  15.629  70.579  0.00  0.00    +0.325 C 
ATOM     13  O   UNL     1     -11.757  14.513  70.817  0.00  0.00    -0.263 OA
ENDBRANCH   6  11
ENDBRANCH   2   4
ENDBRANCH   1   2
BRANCH   1  14
ATOM     14  N   UNL     1     -11.696  13.768  64.269  0.00  0.00    -0.216 NA
BRANCH  14  15
ATOM     15  C   UNL     1     -12.407  12.505  64.936  0.00  0.00    +0.077 C 
ATOM     16  C   UNL     1     -12.660  11.751  63.467  0.00  0.00    +0.019 C 
BRANCH  15  17
ATOM     17  C   UNL     1     -10.931  11.749  65.130  0.00  0.00    +0.044 C 
BRANCH  17  21
ATOM     18  C   UNL     1     -11.240  10.291  69.157  0.00  0.00    +0.139 A 
ATOM     19  C   UNL     1     -11.821  11.480  68.760  0.00  0.00    +0.037 A 
ATOM     20  C   UNL     1     -11.476  12.040  67.543  0.00  0.00    -0.001 A 
ATOM     21  C   UNL     1     -10.951  11.253  66.525  0.00  0.00    -0.021 A 
ATOM     22  C   UNL     1     -10.413  10.047  66.917  0.00  0.00    -0.001 A 
ATOM     23  C   UNL     1     -10.601   9.540  68.194  0.00  0.00    +0.037 A 
BRANCH  18  25
ATOM     24  C   UNL     1     -12.482  10.319  71.170  0.00  0.00    +0.252 C 
ATOM     25  O   UNL     1     -11.433   9.780  70.442  0.00  0.00    -0.471 OA
ENDBRANCH  18  25
ENDBRANCH  17  21
ENDBRANCH  15  17
ENDBRANCH  14  15
ENDBRANCH   1  14
TORSDOF 8
ENDMDL
MODEL 8
REMARK VINA RESULT:      -5.9      2.844      4.111
REMARK  Name = 
REMARK  8 active torsions:
REMARK  status: ('A' for Active; 'I' for Inactive)
REMARK    1  A    between atoms: O_2  and  C_3
REMARK    2  A    between atoms: C_6  and  C_7
REMARK    3  A    between atoms: C_7  and  C_8
REMARK    4  A    between atoms: C_8  and  N_10
REMARK    5  A    between atoms: N_10  and  C_11
REMARK    6  A    between atoms: C_11  and  C_12
REMARK    7  A    between atoms: C_12  and  C_14
REMARK    8  A    between atoms: C_19  and  N_20
REMARK                            x       y       z     vdW  Elec       q    Type
REMARK                         _______ _______ _______ _____ _____    ______ ____
ROOT
ATOM      1  C   UNL     1     -11.314  11.713  65.467  0.00  0.00    +0.126 C 
ENDROOT
BRANCH   1   2
ATOM      2  C   UNL     1     -11.493  12.501  63.989  0.00  0.00    +0.192 C 
ATOM      3  O   UNL     1     -13.047  12.391  64.019  0.00  0.00    -0.217 OA
BRANCH   2   4
ATOM      4  C   UNL     1     -11.441  13.981  64.732  0.00  0.00    +0.011 A 
ATOM      5  C   UNL     1     -10.245  14.503  65.029  0.00  0.00    +0.018 A 
ATOM      6  C   UNL     1      -9.972  15.181  66.218  0.00  0.00    +0.112 A 
ATOM      7  C   UNL     1     -10.715  14.826  67.339  0.00  0.00    +0.211 A 
ATOM      8  O   UNL     1     -10.107  14.351  68.511  0.00  0.00    -0.285 OA
ATOM      9  C   UNL     1     -12.029  14.471  67.043  0.00  0.00    +0.043 A 
ATOM     10  C   UNL     1     -12.383  14.069  65.757  0.00  0.00    +0.002 A 
BRANCH   6  11
ATOM     11  N   UNL     1      -8.583  15.487  66.391  0.00  0.00    -0.168 NA
ATOM     12  C   UNL     1      -8.203  16.854  66.484  0.00  0.00    +0.325 C 
ATOM     13  O   UNL     1      -8.785  17.709  65.779  0.00  0.00    -0.263 OA
ENDBRANCH   6  11
ENDBRANCH   2   4
ENDBRANCH   1   2
BRANCH   1  14
ATOM     14  N   UNL     1     -10.427  10.670  65.320  0.00  0.00    -0.216 NA
BRANCH  14  15
ATOM     15  C   UNL     1      -9.856  10.229  66.743  0.00  0.00    +0.077 C 
ATOM     16  C   UNL     1      -8.835  11.546  66.850  0.00  0.00    +0.019 C 
BRANCH  15  17
ATOM     17  C   UNL     1     -11.085  11.051  67.517  0.00  0.00    +0.044 C 
BRANCH  17  21
ATOM     18  C   UNL     1     -11.603   9.150  71.332  0.00  0.00    +0.139 A 
ATOM     19  C   UNL     1     -12.264  10.316  70.997  0.00  0.00    +0.037 A 
ATOM     20  C   UNL     1     -11.871  11.032  69.880  0.00  0.00    -0.001 A 
ATOM     21  C   UNL     1     -11.179  10.410  68.848  0.00  0.00    -0.021 A 
ATOM     22  C   UNL     1     -10.559   9.223  69.172  0.00  0.00    -0.001 A 
ATOM     23  C   UNL     1     -10.808   8.568  70.369  0.00  0.00    +0.037 A 
BRANCH  18  25
ATOM     24  C   UNL     1     -10.963   7.495  72.896  0.00  0.00    +0.252 C 
ATOM     25  O   UNL     1     -11.858   8.489  72.535  0.00  0.00    -0.471 OA
ENDBRANCH  18  25
ENDBRANCH  17  21
ENDBRANCH  15  17
ENDBRANCH  14  15
ENDBRANCH   1  14
TORSDOF 8
ENDMDL
MODEL 9
REMARK VINA RESULT:      -5.9      3.538      5.094
REMARK  Name = 
REMARK  8 active torsions:
REMARK  status: ('A' for Active; 'I' for Inactive)
REMARK    1  A    between atoms: O_2  and  C_3
REMARK    2  A    between atoms: C_6  and  C_7
REMARK    3  A    between atoms: C_7  and  C_8
REMARK    4  A    between atoms: C_8  and  N_10
REMARK    5  A    between atoms: N_10  and  C_11
REMARK    6  A    between atoms: C_11  and  C_12
REMARK    7  A    between atoms: C_12  and  C_14
REMARK    8  A    between atoms: C_19  and  N_20
REMARK                            x       y       z     vdW  Elec       q    Type
REMARK                         _______ _______ _______ _____ _____    ______ ____
ROOT
ATOM      1  C   UNL     1      -9.647  18.338  66.839  0.00  0.00    +0.126 C 
ENDROOT
BRANCH   1   2
ATOM      2  C   UNL     1      -8.996  19.844  67.222  0.00  0.00    +0.192 C 
ATOM      3  O   UNL     1      -9.888  20.004  68.490  0.00  0.00    -0.217 OA
BRANCH   2   4
ATOM      4  C   UNL     1      -7.733  19.134  68.024  0.00  0.00    +0.011 A 
ATOM      5  C   UNL     1      -7.291  19.706  69.150  0.00  0.00    +0.018 A 
ATOM      6  C   UNL     1      -5.940  19.811  69.485  0.00  0.00    +0.112 A 
ATOM      7  C   UNL     1      -5.028  19.874  68.437  0.00  0.00    +0.211 A 
ATOM      8  O   UNL     1      -4.157  20.962  68.278  0.00  0.00    -0.285 OA
ATOM      9  C   UNL     1      -5.399  19.111  67.332  0.00  0.00    +0.043 A 
ATOM     10  C   UNL     1      -6.727  18.739  67.140  0.00  0.00    +0.002 A 
BRANCH   6  11
ATOM     11  N   UNL     1      -5.703  20.620  70.643  0.00  0.00    -0.168 NA
ATOM     12  C   UNL     1      -4.934  20.067  71.703  0.00  0.00    +0.325 C 
ATOM     13  O   UNL     1      -5.063  18.857  71.998  0.00  0.00    -0.263 OA
ENDBRANCH   6  11
ENDBRANCH   2   4
ENDBRANCH   1   2
BRANCH   1  14
ATOM     14  N   UNL     1     -10.748  18.104  67.632  0.00  0.00    -0.216 NA
BRANCH  14  15
ATOM     15  C   UNL     1     -11.011  16.536  67.759  0.00  0.00    +0.077 C 
ATOM     16  C   UNL     1      -9.502  16.137  67.164  0.00  0.00    +0.019 C 
BRANCH  15  17
ATOM     17  C   UNL     1     -10.448  16.545  69.330  0.00  0.00    +0.044 C 
BRANCH  17  21
ATOM     18  C   UNL     1     -12.805  13.632  71.427  0.00  0.00    +0.139 A 
ATOM     19  C   UNL     1     -12.211  13.358  70.210  0.00  0.00    +0.037 A 
ATOM     20  C   UNL     1     -11.694  14.392  69.450  0.00  0.00    -0.001 A 
ATOM     21  C   UNL     1     -11.329  15.594  70.045  0.00  0.00    -0.021 A 
ATOM     22  C   UNL     1     -11.885  15.845  71.279  0.00  0.00    -0.001 A 
ATOM     23  C   UNL     1     -12.563  14.866  71.991  0.00  0.00    +0.037 A 
BRANCH  18  25
ATOM     24  C   UNL     1     -13.196  11.330  71.809  0.00  0.00    +0.252 C 
ATOM     25  O   UNL     1     -13.482  12.644  72.145  0.00  0.00    -0.471 OA
ENDBRANCH  18  25
ENDBRANCH  17  21
ENDBRANCH  15  17
ENDBRANCH  14  15
ENDBRANCH   1  14
TORSDOF 8
ENDMDL
