MODEL 1
REMARK VINA RESULT:      -9.0      0.000      0.000
REMARK  Name = 
REMARK  3 active torsions:
REMARK  status: ('A' for Active; 'I' for Inactive)
REMARK    1  A    between atoms: C_2  and  C_4
REMARK    2  A    between atoms: C_15  and  O_16
REMARK    3  A    between atoms: O_16  and  C_17
REMARK                            x       y       z     vdW  Elec       q    Type
REMARK                         _______ _______ _______ _____ _____    ______ ____
ROOT
ATOM      1  C   UNL     1     -11.400  12.548  64.899  0.00  0.00    +0.184 C 
ATOM      2  C   UNL     1     -10.132  12.018  65.183  0.00  0.00    +0.072 C 
ATOM      3  C   UNL     1      -9.373  12.667  66.500  0.00  0.00    +0.146 C 
ATOM      4  C   UNL     1     -10.422  13.923  66.707  0.00  0.00    +0.043 A 
ATOM      5  C   UNL     1     -10.577  14.646  65.523  0.00  0.00    +0.021 A 
ATOM      6  C   UNL     1     -10.787  16.022  65.495  0.00  0.00    +0.195 A 
ATOM      7  C   UNL     1     -10.285  16.754  66.535  0.00  0.00    +0.084 A 
ATOM      8  C   UNL     1     -10.052  18.194  66.346  0.00  0.00    +0.199 C 
ATOM      9  O   UNL     1     -10.556  18.837  65.375  0.00  0.00    -0.286 OA
ATOM     10  C   UNL     1      -9.181  18.909  67.285  0.00  0.00    +0.042 A 
ATOM     11  C   UNL     1      -8.270  18.125  67.985  0.00  0.00    +0.042 A 
ATOM     12  C   UNL     1      -7.013  18.624  68.300  0.00  0.00    +0.003 A 
ATOM     13  C   UNL     1      -6.938  20.008  68.385  0.00  0.00    +0.000 A 
ATOM     14  C   UNL     1      -7.786  20.812  67.631  0.00  0.00    +0.000 A 
ATOM     15  C   UNL     1      -8.715  16.809  68.462  0.00  0.00    +0.199 C 
ATOM     16  O   UNL     1      -7.896  16.042  69.054  0.00  0.00    -0.286 OA
ATOM     17  C   UNL     1      -9.011  20.282  67.250  0.00  0.00    +0.003 A 
ATOM     18  C   UNL     1      -9.641  16.089  67.571  0.00  0.00    +0.084 A 
ATOM     19  O   UNL     1     -11.313  16.686  64.397  0.00  0.00    -0.287 OA
ATOM     20  C   UNL     1      -9.804  14.713  67.676  0.00  0.00    +0.197 A 
ATOM     21  O   UNL     1      -9.677  14.223  68.942  0.00  0.00    -0.287 OA
ATOM     22  C   UNL     1     -11.186  13.965  64.368  0.00  0.00    +0.067 C 
ATOM     23  O   UNL     1     -12.442  12.566  65.739  0.00  0.00    -0.218 OA
ENDROOT
BRANCH   1  25
ATOM     24  C   UNL     1     -10.819  11.063  62.906  0.00  0.00    +0.075 C 
ATOM     25  C   UNL     1     -11.856  11.856  63.648  0.00  0.00    +0.179 C 
ATOM     26  O   UNL     1     -12.997  11.828  63.262  0.00  0.00    -0.293 OA
ENDBRANCH   1  25
BRANCH   3  27
ATOM     27  O   UNL     1     -10.084  11.685  67.452  0.00  0.00    -0.328 OA
BRANCH  27  28
ATOM     28  C   UNL     1      -9.409  10.474  66.711  0.00  0.00    +0.237 C 
ATOM     29  O   UNL     1     -10.536   9.481  66.945  0.00  0.00    -0.330 OA
ATOM     30  C   UNL     1     -10.562   8.768  68.264  0.00  0.00    +0.150 C 
ATOM     31  C   UNL     1      -8.999   8.277  68.390  0.00  0.00    +0.035 C 
ATOM     32  C   UNL     1     -10.602  10.214  69.207  0.00  0.00    +0.196 C 
ATOM     33  O   UNL     1     -10.650   9.449  70.513  0.00  0.00    -0.219 OA
ATOM     34  C   UNL     1      -8.953  10.685  69.301  0.00  0.00    +0.130 C 
ATOM     35  N   UNL     1      -8.451   9.530  70.262  0.00  0.00    -0.130 NA
ATOM     36  C   UNL     1      -8.388  10.037  67.945  0.00  0.00    +0.083 C 
ENDBRANCH  27  28
ENDBRANCH   3  27
TORSDOF 3
ENDMDL
MODEL 2
REMARK VINA RESULT:      -8.5      3.281      8.665
REMARK  Name = 
REMARK  3 active torsions:
REMARK  status: ('A' for Active; 'I' for Inactive)
REMARK    1  A    between atoms: C_2  and  C_4
REMARK    2  A    between atoms: C_15  and  O_16
REMARK    3  A    between atoms: O_16  and  C_17
REMARK                            x       y       z     vdW  Elec       q    Type
REMARK                         _______ _______ _______ _____ _____    ______ ____
ROOT
ATOM      1  C   UNL     1     -12.998  14.750  71.349  0.00  0.00    +0.184 C 
ATOM      2  C   UNL     1     -11.654  15.123  71.192  0.00  0.00    +0.072 C 
ATOM      3  C   UNL     1     -10.808  14.261  70.064  0.00  0.00    +0.146 C 
ATOM      4  C   UNL     1     -11.952  13.094  69.840  0.00  0.00    +0.043 A 
ATOM      5  C   UNL     1     -12.334  12.526  71.056  0.00  0.00    +0.021 A 
ATOM      6  C   UNL     1     -12.694  11.189  71.191  0.00  0.00    +0.195 A 
ATOM      7  C   UNL     1     -12.146  10.300  70.309  0.00  0.00    +0.084 A 
ATOM      8  C   UNL     1     -12.095   8.876  70.670  0.00  0.00    +0.199 C 
ATOM      9  O   UNL     1     -12.786   8.396  71.621  0.00  0.00    -0.286 OA
ATOM     10  C   UNL     1     -11.194   7.980  69.937  0.00  0.00    +0.042 A 
ATOM     11  C   UNL     1     -10.122   8.591  69.295  0.00  0.00    +0.042 A 
ATOM     12  C   UNL     1      -8.896   7.943  69.208  0.00  0.00    +0.003 A 
ATOM     13  C   UNL     1      -8.961   6.558  69.273  0.00  0.00    +0.000 A 
ATOM     14  C   UNL     1      -9.980   5.927  69.977  0.00  0.00    +0.000 A 
ATOM     15  C   UNL     1     -10.357   9.881  68.633  0.00  0.00    +0.199 C 
ATOM     16  O   UNL     1      -9.391  10.496  68.087  0.00  0.00    -0.286 OA
ATOM     17  C   UNL     1     -11.179   6.610  70.130  0.00  0.00    +0.003 A 
ATOM     18  C   UNL     1     -11.306  10.780  69.311  0.00  0.00    +0.084 A 
ATOM     19  O   UNL     1     -13.424  10.705  72.266  0.00  0.00    -0.287 OA
ATOM     20  C   UNL     1     -11.305  12.145  69.048  0.00  0.00    +0.197 A 
ATOM     21  O   UNL     1     -10.964  12.475  67.770  0.00  0.00    -0.287 OA
ATOM     22  C   UNL     1     -13.008  13.388  72.042  0.00  0.00    +0.067 C 
ATOM     23  O   UNL     1     -13.920  14.735  70.379  0.00  0.00    -0.218 OA
ENDROOT
BRANCH   1  25
ATOM     24  C   UNL     1     -12.594  15.917  73.583  0.00  0.00    +0.075 C 
ATOM     25  C   UNL     1     -13.533  15.619  72.450  0.00  0.00    +0.179 C 
ATOM     26  O   UNL     1     -14.614  16.149  72.435  0.00  0.00    -0.293 OA
ENDBRANCH   1  25
BRANCH   3  27
ATOM     27  O   UNL     1     -11.281  15.192  68.930  0.00  0.00    -0.328 OA
BRANCH  27  28
ATOM     28  C   UNL     1     -10.470  16.380  69.563  0.00  0.00    +0.237 C 
ATOM     29  O   UNL     1     -11.060  17.475  68.690  0.00  0.00    -0.330 OA
ATOM     30  C   UNL     1     -10.456  17.674  67.332  0.00  0.00    +0.150 C 
ATOM     31  C   UNL     1      -8.854  17.695  67.699  0.00  0.00    +0.035 C 
ATOM     32  C   UNL     1     -10.725  16.049  66.816  0.00  0.00    +0.196 C 
ATOM     33  O   UNL     1     -10.126  16.305  65.449  0.00  0.00    -0.219 OA
ATOM     34  C   UNL     1      -9.393  15.186  67.471  0.00  0.00    +0.130 C 
ATOM     35  N   UNL     1      -8.265  15.781  66.530  0.00  0.00    -0.130 NA
ATOM     36  C   UNL     1      -9.051  16.103  68.745  0.00  0.00    +0.083 C 
ENDBRANCH  27  28
ENDBRANCH   3  27
TORSDOF 3
ENDMDL
MODEL 3
REMARK VINA RESULT:      -8.4      2.786      5.330
REMARK  Name = 
REMARK  3 active torsions:
REMARK  status: ('A' for Active; 'I' for Inactive)
REMARK    1  A    between atoms: C_2  and  C_4
REMARK    2  A    between atoms: C_15  and  O_16
REMARK    3  A    between atoms: O_16  and  C_17
REMARK                            x       y       z     vdW  Elec       q    Type
REMARK                         _______ _______ _______ _____ _____    ______ ____
ROOT
ATOM      1  C   UNL     1      -9.786   7.205  66.875  0.00  0.00    +0.184 C 
ATOM      2  C   UNL     1      -9.087   7.558  68.039  0.00  0.00    +0.072 C 
ATOM      3  C   UNL     1      -9.646   8.902  68.820  0.00  0.00    +0.146 C 
ATOM      4  C   UNL     1     -10.661   9.395  67.618  0.00  0.00    +0.043 A 
ATOM      5  C   UNL     1      -9.988   9.486  66.399  0.00  0.00    +0.021 A 
ATOM      6  C   UNL     1     -10.293  10.438  65.431  0.00  0.00    +0.195 A 
ATOM      7  C   UNL     1     -10.829  11.620  65.862  0.00  0.00    +0.084 A 
ATOM      8  C   UNL     1     -10.730  12.805  64.996  0.00  0.00    +0.199 C 
ATOM      9  O   UNL     1     -10.434  12.719  63.765  0.00  0.00    -0.286 OA
ATOM     10  C   UNL     1     -10.945  14.136  65.575  0.00  0.00    +0.042 A 
ATOM     11  C   UNL     1     -10.754  14.239  66.948  0.00  0.00    +0.042 A 
ATOM     12  C   UNL     1     -10.224  15.400  67.497  0.00  0.00    +0.003 A 
ATOM     13  C   UNL     1     -10.424  16.547  66.742  0.00  0.00    +0.000 A 
ATOM     14  C   UNL     1     -10.538  16.476  65.358  0.00  0.00    +0.000 A 
ATOM     15  C   UNL     1     -11.222  13.134  67.795  0.00  0.00    +0.199 C 
ATOM     16  O   UNL     1     -11.014  13.165  69.046  0.00  0.00    -0.286 OA
ATOM     17  C   UNL     1     -10.994  15.287  64.807  0.00  0.00    +0.003 A 
ATOM     18  C   UNL     1     -11.078  11.786  67.218  0.00  0.00    +0.084 A 
ATOM     19  O   UNL     1      -9.920  10.315  64.102  0.00  0.00    -0.287 OA
ATOM     20  C   UNL     1     -11.077  10.660  68.034  0.00  0.00    +0.197 A 
ATOM     21  O   UNL     1     -11.860  10.764  69.144  0.00  0.00    -0.287 OA
ATOM     22  C   UNL     1      -9.445   8.248  65.812  0.00  0.00    +0.067 C 
ATOM     23  O   UNL     1     -11.097   6.944  66.804  0.00  0.00    -0.218 OA
ENDROOT
BRANCH   1  25
ATOM     24  C   UNL     1      -9.906   4.788  66.063  0.00  0.00    +0.075 C 
ATOM     25  C   UNL     1      -9.070   6.008  66.320  0.00  0.00    +0.179 C 
ATOM     26  O   UNL     1      -7.910   5.999  65.994  0.00  0.00    -0.293 OA
ENDBRANCH   1  25
BRANCH   3  27
ATOM     27  O   UNL     1     -10.685   8.074  69.601  0.00  0.00    -0.328 OA
BRANCH  27  28
ATOM     28  C   UNL     1      -9.687   7.957  70.810  0.00  0.00    +0.237 C 
ATOM     29  O   UNL     1      -9.981   6.501  71.133  0.00  0.00    -0.330 OA
ATOM     30  C   UNL     1     -11.180   6.213  71.985  0.00  0.00    +0.150 C 
ATOM     31  C   UNL     1     -10.968   7.295  73.205  0.00  0.00    +0.035 C 
ATOM     32  C   UNL     1     -12.296   7.008  70.936  0.00  0.00    +0.196 C 
ATOM     33  O   UNL     1     -13.479   6.673  71.819  0.00  0.00    -0.219 OA
ATOM     34  C   UNL     1     -12.165   8.662  71.379  0.00  0.00    +0.130 C 
ATOM     35  N   UNL     1     -12.865   8.564  72.797  0.00  0.00    -0.130 NA
ATOM     36  C   UNL     1     -10.658   8.696  71.935  0.00  0.00    +0.083 C 
ENDBRANCH  27  28
ENDBRANCH   3  27
TORSDOF 3
ENDMDL
MODEL 4
REMARK VINA RESULT:      -8.4      1.172      1.554
REMARK  Name = 
REMARK  3 active torsions:
REMARK  status: ('A' for Active; 'I' for Inactive)
REMARK    1  A    between atoms: C_2  and  C_4
REMARK    2  A    between atoms: C_15  and  O_16
REMARK    3  A    between atoms: O_16  and  C_17
REMARK                            x       y       z     vdW  Elec       q    Type
REMARK                         _______ _______ _______ _____ _____    ______ ____
ROOT
ATOM      1  C   UNL     1     -11.347  14.000  65.388  0.00  0.00    +0.184 C 
ATOM      2  C   UNL     1     -10.195  13.203  65.316  0.00  0.00    +0.072 C 
ATOM      3  C   UNL     1      -9.083  13.455  66.513  0.00  0.00    +0.146 C 
ATOM      4  C   UNL     1      -9.778  14.826  67.111  0.00  0.00    +0.043 A 
ATOM      5  C   UNL     1      -9.987  15.765  66.100  0.00  0.00    +0.021 A 
ATOM      6  C   UNL     1      -9.895  17.138  66.307  0.00  0.00    +0.195 A 
ATOM      7  C   UNL     1      -9.063  17.568  67.303  0.00  0.00    +0.084 A 
ATOM      8  C   UNL     1      -8.562  18.949  67.266  0.00  0.00    +0.199 C 
ATOM      9  O   UNL     1      -9.084  19.838  66.526  0.00  0.00    -0.286 OA
ATOM     10  C   UNL     1      -7.398  19.312  68.083  0.00  0.00    +0.042 A 
ATOM     11  C   UNL     1      -6.567  18.262  68.455  0.00  0.00    +0.042 A 
ATOM     12  C   UNL     1      -5.195  18.456  68.555  0.00  0.00    +0.003 A 
ATOM     13  C   UNL     1      -4.806  19.764  68.810  0.00  0.00    +0.000 A 
ATOM     14  C   UNL     1      -5.583  20.832  68.376  0.00  0.00    +0.000 A 
ATOM     15  C   UNL     1      -7.191  16.987  68.833  0.00  0.00    +0.199 C 
ATOM     16  O   UNL     1      -6.464  15.988  69.122  0.00  0.00    -0.286 OA
ATOM     17  C   UNL     1      -6.943  20.614  68.201  0.00  0.00    +0.003 A 
ATOM     18  C   UNL     1      -8.399  16.621  68.074  0.00  0.00    +0.084 A 
ATOM     19  O   UNL     1     -10.457  18.072  65.450  0.00  0.00    -0.287 OA
ATOM     20  C   UNL     1      -8.836  15.302  68.023  0.00  0.00    +0.197 A 
ATOM     21  O   UNL     1      -8.586  14.580  69.151  0.00  0.00    -0.287 OA
ATOM     22  C   UNL     1     -10.932  15.424  65.023  0.00  0.00    +0.067 C 
ATOM     23  O   UNL     1     -12.187  14.060  66.429  0.00  0.00    -0.218 OA
ENDROOT
BRANCH   1  25
ATOM     24  C   UNL     1     -12.267  12.176  63.858  0.00  0.00    +0.075 C 
ATOM     25  C   UNL     1     -12.166  13.638  64.183  0.00  0.00    +0.179 C 
ATOM     26  O   UNL     1     -12.802  14.426  63.530  0.00  0.00    -0.293 OA
ENDBRANCH   1  25
BRANCH   3  27
ATOM     27  O   UNL     1      -9.803  12.468  67.453  0.00  0.00    -0.328 OA
BRANCH  27  28
ATOM     28  C   UNL     1      -9.499  11.292  66.455  0.00  0.00    +0.237 C 
ATOM     29  O   UNL     1     -10.750  10.484  66.756  0.00  0.00    -0.330 OA
ATOM     30  C   UNL     1     -10.718   9.586  67.957  0.00  0.00    +0.150 C 
ATOM     31  C   UNL     1      -9.281   8.818  67.738  0.00  0.00    +0.035 C 
ATOM     32  C   UNL     1     -10.330  10.848  69.069  0.00  0.00    +0.196 C 
ATOM     33  O   UNL     1     -10.331   9.905  70.253  0.00  0.00    -0.219 OA
ATOM     34  C   UNL     1      -8.626  11.007  68.928  0.00  0.00    +0.130 C 
ATOM     35  N   UNL     1      -8.222   9.644  69.628  0.00  0.00    -0.130 NA
ATOM     36  C   UNL     1      -8.409  10.494  67.421  0.00  0.00    +0.083 C 
ENDBRANCH  27  28
ENDBRANCH   3  27
TORSDOF 3
ENDMDL
MODEL 5
REMARK VINA RESULT:      -7.9      3.063      8.271
REMARK  Name = 
REMARK  3 active torsions:
REMARK  status: ('A' for Active; 'I' for Inactive)
REMARK    1  A    between atoms: C_2  and  C_4
REMARK    2  A    between atoms: C_15  and  O_16
REMARK    3  A    between atoms: O_16  and  C_17
REMARK                            x       y       z     vdW  Elec       q    Type
REMARK                         _______ _______ _______ _____ _____    ______ ____
ROOT
ATOM      1  C   UNL     1     -12.125  15.409  70.709  0.00  0.00    +0.184 C 
ATOM      2  C   UNL     1     -10.799  15.838  70.542  0.00  0.00    +0.072 C 
ATOM      3  C   UNL     1     -10.061  15.329  69.154  0.00  0.00    +0.146 C 
ATOM      4  C   UNL     1     -11.225  14.244  68.722  0.00  0.00    +0.043 A 
ATOM      5  C   UNL     1     -11.499  13.361  69.768  0.00  0.00    +0.021 A 
ATOM      6  C   UNL     1     -11.852  12.030  69.566  0.00  0.00    +0.195 A 
ATOM      7  C   UNL     1     -11.388  11.424  68.433  0.00  0.00    +0.084 A 
ATOM      8  C   UNL     1     -11.313   9.956  68.389  0.00  0.00    +0.199 C 
ATOM      9  O   UNL     1     -11.918   9.223  69.230  0.00  0.00    -0.286 OA
ATOM     10  C   UNL     1     -10.484   9.310  67.365  0.00  0.00    +0.042 A 
ATOM     11  C   UNL     1      -9.471  10.092  66.822  0.00  0.00    +0.042 A 
ATOM     12  C   UNL     1      -8.261   9.517  66.456  0.00  0.00    +0.003 A 
ATOM     13  C   UNL     1      -8.326   8.165  66.148  0.00  0.00    +0.000 A 
ATOM     14  C   UNL     1      -9.281   7.347  66.742  0.00  0.00    +0.000 A 
ATOM     15  C   UNL     1      -9.759  11.508  66.556  0.00  0.00    +0.199 C 
ATOM     16  O   UNL     1      -8.843  12.267  66.115  0.00  0.00    -0.286 OA
ATOM     17  C   UNL     1     -10.458   7.939  67.178  0.00  0.00    +0.003 A 
ATOM     18  C   UNL     1     -10.639  12.172  67.533  0.00  0.00    +0.084 A 
ATOM     19  O   UNL     1     -12.485  11.260  70.530  0.00  0.00    -0.287 OA
ATOM     20  C   UNL     1     -10.655  13.557  67.650  0.00  0.00    +0.197 A 
ATOM     21  O   UNL     1     -10.429  14.226  66.485  0.00  0.00    -0.287 OA
ATOM     22  C   UNL     1     -12.079  13.911  71.006  0.00  0.00    +0.067 C 
ATOM     23  O   UNL     1     -13.129  15.639  69.855  0.00  0.00    -0.218 OA
ENDROOT
BRANCH   1  25
ATOM     24  C   UNL     1     -13.936  15.563  72.500  0.00  0.00    +0.075 C 
ATOM     25  C   UNL     1     -12.555  15.938  72.046  0.00  0.00    +0.179 C 
ATOM     26  O   UNL     1     -11.843  16.556  72.796  0.00  0.00    -0.293 OA
ENDBRANCH   1  25
BRANCH   3  27
ATOM     27  O   UNL     1     -10.629  16.522  68.360  0.00  0.00    -0.328 OA
BRANCH  27  28
ATOM     28  C   UNL     1      -9.731  17.507  69.192  0.00  0.00    +0.237 C 
ATOM     29  O   UNL     1     -10.562  18.754  68.937  0.00  0.00    -0.330 OA
ATOM     30  C   UNL     1     -10.325  19.489  67.653  0.00  0.00    +0.150 C 
ATOM     31  C   UNL     1      -8.684  19.584  67.641  0.00  0.00    +0.035 C 
ATOM     32  C   UNL     1     -10.652  18.126  66.645  0.00  0.00    +0.196 C 
ATOM     33  O   UNL     1     -10.424  18.917  65.374  0.00  0.00    -0.219 OA
ATOM     34  C   UNL     1      -9.166  17.266  66.627  0.00  0.00    +0.130 C 
ATOM     35  N   UNL     1      -8.333  18.290  65.750  0.00  0.00    -0.130 NA
ATOM     36  C   UNL     1      -8.552  17.715  68.042  0.00  0.00    +0.083 C 
ENDBRANCH  27  28
ENDBRANCH   3  27
TORSDOF 3
ENDMDL
MODEL 6
REMARK VINA RESULT:      -7.7      2.694      7.847
REMARK  Name = 
REMARK  3 active torsions:
REMARK  status: ('A' for Active; 'I' for Inactive)
REMARK    1  A    between atoms: C_2  and  C_4
REMARK    2  A    between atoms: C_15  and  O_16
REMARK    3  A    between atoms: O_16  and  C_17
REMARK                            x       y       z     vdW  Elec       q    Type
REMARK                         _______ _______ _______ _____ _____    ______ ____
ROOT
ATOM      1  C   UNL     1      -9.263  17.985  66.840  0.00  0.00    +0.184 C 
ATOM      2  C   UNL     1      -8.810  17.926  68.167  0.00  0.00    +0.072 C 
ATOM      3  C   UNL     1      -7.925  16.585  68.553  0.00  0.00    +0.146 C 
ATOM      4  C   UNL     1      -8.257  15.750  67.170  0.00  0.00    +0.043 A 
ATOM      5  C   UNL     1      -9.632  15.678  66.946  0.00  0.00    +0.021 A 
ATOM      6  C   UNL     1     -10.249  14.581  66.351  0.00  0.00    +0.195 A 
ATOM      7  C   UNL     1      -9.644  13.365  66.500  0.00  0.00    +0.084 A 
ATOM      8  C   UNL     1     -10.444  12.144  66.327  0.00  0.00    +0.199 C 
ATOM      9  O   UNL     1     -11.585  12.158  65.770  0.00  0.00    -0.286 OA
ATOM     10  C   UNL     1      -9.932  10.870  66.843  0.00  0.00    +0.042 A 
ATOM     11  C   UNL     1      -8.985  10.963  67.857  0.00  0.00    +0.042 A 
ATOM     12  C   UNL     1      -8.950  10.016  68.873  0.00  0.00    +0.003 A 
ATOM     13  C   UNL     1      -9.476   8.777  68.535  0.00  0.00    +0.000 A 
ATOM     14  C   UNL     1     -10.481   8.669  67.580  0.00  0.00    +0.000 A 
ATOM     15  C   UNL     1      -7.972  12.023  67.761  0.00  0.00    +0.199 C 
ATOM     16  O   UNL     1      -7.128  12.176  68.695  0.00  0.00    -0.286 OA
ATOM     17  C   UNL     1     -10.563   9.660  66.612  0.00  0.00    +0.003 A 
ATOM     18  C   UNL     1      -8.439  13.298  67.189  0.00  0.00    +0.084 A 
ATOM     19  O   UNL     1     -11.512  14.638  65.782  0.00  0.00    -0.287 OA
ATOM     20  C   UNL     1      -7.742  14.478  67.420  0.00  0.00    +0.197 A 
ATOM     21  O   UNL     1      -6.393  14.326  67.541  0.00  0.00    -0.287 OA
ATOM     22  C   UNL     1     -10.361  16.933  66.693  0.00  0.00    +0.067 C 
ATOM     23  O   UNL     1      -8.487  17.939  65.750  0.00  0.00    -0.218 OA
ENDROOT
BRANCH   1  25
ATOM     24  C   UNL     1     -10.187  20.063  67.998  0.00  0.00    +0.075 C 
ATOM     25  C   UNL     1     -10.078  19.242  66.746  0.00  0.00    +0.179 C 
ATOM     26  O   UNL     1     -10.563  19.666  65.728  0.00  0.00    -0.293 OA
ENDBRANCH   1  25
BRANCH   3  27
ATOM     27  O   UNL     1      -6.623  17.243  68.054  0.00  0.00    -0.328 OA
BRANCH  27  28
ATOM     28  C   UNL     1      -6.037  17.192  69.512  0.00  0.00    +0.237 C 
ATOM     29  O   UNL     1      -6.045  18.693  69.752  0.00  0.00    -0.330 OA
ATOM     30  C   UNL     1      -4.885  19.481  69.222  0.00  0.00    +0.150 C 
ATOM     31  C   UNL     1      -3.619  18.575  69.749  0.00  0.00    +0.035 C 
ATOM     32  C   UNL     1      -5.093  18.962  67.589  0.00  0.00    +0.196 C 
ATOM     33  O   UNL     1      -3.927  19.792  67.097  0.00  0.00    -0.219 OA
ATOM     34  C   UNL     1      -4.301  17.439  67.541  0.00  0.00    +0.130 C 
ATOM     35  N   UNL     1      -2.811  17.965  67.664  0.00  0.00    -0.130 NA
ATOM     36  C   UNL     1      -4.448  16.986  69.075  0.00  0.00    +0.083 C 
ENDBRANCH  27  28
ENDBRANCH   3  27
TORSDOF 3
ENDMDL
MODEL 7
REMARK VINA RESULT:      -7.6      3.548      9.337
REMARK  Name = 
REMARK  3 active torsions:
REMARK  status: ('A' for Active; 'I' for Inactive)
REMARK    1  A    between atoms: C_2  and  C_4
REMARK    2  A    between atoms: C_15  and  O_16
REMARK    3  A    between atoms: O_16  and  C_17
REMARK                            x       y       z     vdW  Elec       q    Type
REMARK                         _______ _______ _______ _____ _____    ______ ____
ROOT
ATOM      1  C   UNL     1     -12.052  11.091  69.939  0.00  0.00    +0.184 C 
ATOM      2  C   UNL     1     -10.909  11.762  69.479  0.00  0.00    +0.072 C 
ATOM      3  C   UNL     1     -10.099  11.017  68.246  0.00  0.00    +0.146 C 
ATOM      4  C   UNL     1     -10.918   9.588  68.335  0.00  0.00    +0.043 A 
ATOM      5  C   UNL     1     -10.898   9.079  69.634  0.00  0.00    +0.021 A 
ATOM      6  C   UNL     1     -10.863   7.717  69.916  0.00  0.00    +0.195 A 
ATOM      7  C   UNL     1     -10.281   6.900  68.988  0.00  0.00    +0.084 A 
ATOM      8  C   UNL     1      -9.791   5.578  69.409  0.00  0.00    +0.199 C 
ATOM      9  O   UNL     1     -10.137   5.049  70.509  0.00  0.00    -0.286 OA
ATOM     10  C   UNL     1      -8.845   4.857  68.551  0.00  0.00    +0.042 A 
ATOM     11  C   UNL     1      -8.113   5.638  67.663  0.00  0.00    +0.042 A 
ATOM     12  C   UNL     1      -6.801   5.305  67.353  0.00  0.00    +0.003 A 
ATOM     13  C   UNL     1      -6.488   3.961  67.506  0.00  0.00    +0.000 A 
ATOM     14  C   UNL     1      -7.152   3.180  68.445  0.00  0.00    +0.000 A 
ATOM     15  C   UNL     1      -8.800   6.752  66.995  0.00  0.00    +0.199 C 
ATOM     16  O   UNL     1      -8.152   7.522  66.224  0.00  0.00    -0.286 OA
ATOM     17  C   UNL     1      -8.435   3.561  68.812  0.00  0.00    +0.003 A 
ATOM     18  C   UNL     1      -9.803   7.460  67.810  0.00  0.00    +0.084 A 
ATOM     19  O   UNL     1     -11.221   7.188  71.147  0.00  0.00    -0.287 OA
ATOM     20  C   UNL     1     -10.209   8.747  67.477  0.00  0.00    +0.197 A 
ATOM     21  O   UNL     1     -10.218   9.010  66.140  0.00  0.00    -0.287 OA
ATOM     22  C   UNL     1     -11.573   9.851  70.692  0.00  0.00    +0.067 C 
ATOM     23  O   UNL     1     -13.106  10.747  69.189  0.00  0.00    -0.218 OA
ENDROOT
BRANCH   1  25
ATOM     24  C   UNL     1     -12.420  13.404  70.952  0.00  0.00    +0.075 C 
ATOM     25  C   UNL     1     -12.574  11.916  71.078  0.00  0.00    +0.179 C 
ATOM     26  O   UNL     1     -13.174  11.471  72.023  0.00  0.00    -0.293 OA
ENDBRANCH   1  25
BRANCH   3  27
ATOM     27  O   UNL     1     -11.007  11.676  67.189  0.00  0.00    -0.328 OA
BRANCH  27  28
ATOM     28  C   UNL     1      -9.765  12.429  66.588  0.00  0.00    +0.237 C 
ATOM     29  O   UNL     1     -10.178  13.822  67.036  0.00  0.00    -0.330 OA
ATOM     30  C   UNL     1     -11.153  14.563  66.170  0.00  0.00    +0.150 C 
ATOM     31  C   UNL     1     -10.485  14.345  64.684  0.00  0.00    +0.035 C 
ATOM     32  C   UNL     1     -12.368  13.339  66.243  0.00  0.00    +0.196 C 
ATOM     33  O   UNL     1     -13.327  14.135  65.384  0.00  0.00    -0.219 OA
ATOM     34  C   UNL     1     -11.889  12.215  65.038  0.00  0.00    +0.130 C 
ATOM     35  N   UNL     1     -12.216  13.105  63.768  0.00  0.00    -0.130 NA
ATOM     36  C   UNL     1     -10.303  12.468  65.018  0.00  0.00    +0.083 C 
ENDBRANCH  27  28
ENDBRANCH   3  27
TORSDOF 3
ENDMDL
MODEL 8
REMARK VINA RESULT:      -7.6      3.948      7.114
REMARK  Name = 
REMARK  3 active torsions:
REMARK  status: ('A' for Active; 'I' for Inactive)
REMARK    1  A    between atoms: C_2  and  C_4
REMARK    2  A    between atoms: C_15  and  O_16
REMARK    3  A    between atoms: O_16  and  C_17
REMARK                            x       y       z     vdW  Elec       q    Type
REMARK                         _______ _______ _______ _____ _____    ______ ____
ROOT
ATOM      1  C   UNL     1     -10.666   7.462  70.804  0.00  0.00    +0.184 C 
ATOM      2  C   UNL     1     -11.083   6.600  69.778  0.00  0.00    +0.072 C 
ATOM      3  C   UNL     1     -10.632   7.047  68.252  0.00  0.00    +0.146 C 
ATOM      4  C   UNL     1     -10.107   8.556  68.659  0.00  0.00    +0.043 A 
ATOM      5  C   UNL     1     -11.087   9.256  69.364  0.00  0.00    +0.021 A 
ATOM      6  C   UNL     1     -11.263  10.632  69.258  0.00  0.00    +0.195 A 
ATOM      7  C   UNL     1     -10.894  11.223  68.082  0.00  0.00    +0.084 A 
ATOM      8  C   UNL     1     -11.471  12.529  67.728  0.00  0.00    +0.199 C 
ATOM      9  O   UNL     1     -12.063  13.258  68.581  0.00  0.00    -0.286 OA
ATOM     10  C   UNL     1     -11.395  12.994  66.339  0.00  0.00    +0.042 A 
ATOM     11  C   UNL     1     -11.225  12.006  65.376  0.00  0.00    +0.042 A 
ATOM     12  C   UNL     1     -11.820  12.134  64.128  0.00  0.00    +0.003 A 
ATOM     13  C   UNL     1     -12.078  13.440  63.735  0.00  0.00    +0.000 A 
ATOM     14  C   UNL     1     -12.331  14.429  64.679  0.00  0.00    +0.000 A 
ATOM     15  C   UNL     1     -10.323  10.888  65.685  0.00  0.00    +0.199 C 
ATOM     16  O   UNL     1     -10.187   9.938  64.856  0.00  0.00    -0.286 OA
ATOM     17  C   UNL     1     -11.799  14.259  65.950  0.00  0.00    +0.003 A 
ATOM     18  C   UNL     1     -10.329  10.435  67.087  0.00  0.00    +0.084 A 
ATOM     19  O   UNL     1     -11.947  11.383  70.202  0.00  0.00    -0.287 OA
ATOM     20  C   UNL     1      -9.872   9.167  67.427  0.00  0.00    +0.197 A 
ATOM     21  O   UNL     1      -8.858   8.702  66.644  0.00  0.00    -0.287 OA
ATOM     22  C   UNL     1     -11.494   8.740  70.683  0.00  0.00    +0.067 C 
ATOM     23  O   UNL     1      -9.398   7.804  71.065  0.00  0.00    -0.218 OA
ENDROOT
BRANCH   1  25
ATOM     24  C   UNL     1     -10.564   7.297  73.349  0.00  0.00    +0.075 C 
ATOM     25  C   UNL     1     -11.236   6.889  72.069  0.00  0.00    +0.179 C 
ATOM     26  O   UNL     1     -12.229   6.210  72.123  0.00  0.00    -0.293 OA
ENDBRANCH   1  25
BRANCH   3  27
ATOM     27  O   UNL     1      -9.270   6.341  68.398  0.00  0.00    -0.328 OA
BRANCH  27  28
ATOM     28  C   UNL     1      -9.674   5.322  67.272  0.00  0.00    +0.237 C 
ATOM     29  O   UNL     1      -9.605   4.074  68.137  0.00  0.00    -0.330 OA
ATOM     30  C   UNL     1      -8.257   3.448  68.336  0.00  0.00    +0.150 C 
ATOM     31  C   UNL     1      -7.697   3.405  66.791  0.00  0.00    +0.035 C 
ATOM     32  C   UNL     1      -7.531   4.875  68.983  0.00  0.00    +0.196 C 
ATOM     33  O   UNL     1      -6.195   4.192  69.185  0.00  0.00    -0.219 OA
ATOM     34  C   UNL     1      -7.096   5.779  67.589  0.00  0.00    +0.130 C 
ATOM     35  N   UNL     1      -5.911   4.853  67.090  0.00  0.00    -0.130 NA
ATOM     36  C   UNL     1      -8.186   5.240  66.540  0.00  0.00    +0.083 C 
ENDBRANCH  27  28
ENDBRANCH   3  27
TORSDOF 3
ENDMDL
MODEL 9
REMARK VINA RESULT:      -7.5      3.338      6.090
REMARK  Name = 
REMARK  3 active torsions:
REMARK  status: ('A' for Active; 'I' for Inactive)
REMARK    1  A    between atoms: C_2  and  C_4
REMARK    2  A    between atoms: C_15  and  O_16
REMARK    3  A    between atoms: O_16  and  C_17
REMARK                            x       y       z     vdW  Elec       q    Type
REMARK                         _______ _______ _______ _____ _____    ______ ____
ROOT
ATOM      1  C   UNL     1      -9.772  17.877  67.255  0.00  0.00    +0.184 C 
ATOM      2  C   UNL     1      -9.544  17.066  66.133  0.00  0.00    +0.072 C 
ATOM      3  C   UNL     1      -8.940  15.563  66.458  0.00  0.00    +0.146 C 
ATOM      4  C   UNL     1      -8.600  15.849  68.046  0.00  0.00    +0.043 A 
ATOM      5  C   UNL     1      -7.819  16.996  68.193  0.00  0.00    +0.021 A 
ATOM      6  C   UNL     1      -6.852  17.136  69.183  0.00  0.00    +0.195 A 
ATOM      7  C   UNL     1      -6.257  15.994  69.644  0.00  0.00    +0.084 A 
ATOM      8  C   UNL     1      -4.948  16.090  70.306  0.00  0.00    +0.199 C 
ATOM      9  O   UNL     1      -4.481  17.194  70.723  0.00  0.00    -0.286 OA
ATOM     10  C   UNL     1      -4.132  14.880  70.462  0.00  0.00    +0.042 A 
ATOM     11  C   UNL     1      -4.410  13.843  69.579  0.00  0.00    +0.042 A 
ATOM     12  C   UNL     1      -3.388  13.027  69.112  0.00  0.00    +0.003 A 
ATOM     13  C   UNL     1      -2.281  12.942  69.945  0.00  0.00    +0.000 A 
ATOM     14  C   UNL     1      -1.938  14.000  70.779  0.00  0.00    +0.000 A 
ATOM     15  C   UNL     1      -5.816  13.580  69.242  0.00  0.00    +0.199 C 
ATOM     16  O   UNL     1      -6.106  12.681  68.395  0.00  0.00    -0.286 OA
ATOM     17  C   UNL     1      -2.950  14.862  71.181  0.00  0.00    +0.003 A 
ATOM     18  C   UNL     1      -6.678  14.771  69.138  0.00  0.00    +0.084 A 
ATOM     19  O   UNL     1      -6.349  18.364  69.583  0.00  0.00    -0.287 OA
ATOM     20  C   UNL     1      -7.877  14.722  68.437  0.00  0.00    +0.197 A 
ATOM     21  O   UNL     1      -8.511  13.516  68.483  0.00  0.00    -0.287 OA
ATOM     22  C   UNL     1      -8.405  18.289  67.798  0.00  0.00    +0.067 C 
ATOM     23  O   UNL     1     -10.561  17.567  68.292  0.00  0.00    -0.218 OA
ENDROOT
BRANCH   1  25
ATOM     24  C   UNL     1      -9.943  20.408  67.534  0.00  0.00    +0.075 C 
ATOM     25  C   UNL     1     -10.256  19.191  66.714  0.00  0.00    +0.179 C 
ATOM     26  O   UNL     1     -10.790  19.331  65.643  0.00  0.00    -0.293 OA
ENDBRANCH   1  25
BRANCH   3  27
ATOM     27  O   UNL     1     -10.354  14.992  66.681  0.00  0.00    -0.328 OA
BRANCH  27  28
ATOM     28  C   UNL     1     -10.646  15.106  65.140  0.00  0.00    +0.237 C 
ATOM     29  O   UNL     1     -12.138  14.832  65.228  0.00  0.00    -0.330 OA
ATOM     30  C   UNL     1     -12.573  13.398  65.290  0.00  0.00    +0.150 C 
ATOM     31  C   UNL     1     -11.692  12.748  64.064  0.00  0.00    +0.035 C 
ATOM     32  C   UNL     1     -11.639  13.026  66.693  0.00  0.00    +0.196 C 
ATOM     33  O   UNL     1     -12.124  11.592  66.726  0.00  0.00    -0.219 OA
ATOM     34  C   UNL     1     -10.073  12.703  66.066  0.00  0.00    +0.130 C 
ATOM     35  N   UNL     1     -10.402  11.323  65.360  0.00  0.00    -0.130 NA
ATOM     36  C   UNL     1     -10.106  13.591  64.728  0.00  0.00    +0.083 C 
ENDBRANCH  27  28
ENDBRANCH   3  27
TORSDOF 3
ENDMDL
