MODEL 1
REMARK VINA RESULT:      -5.8      0.000      0.000
REMARK  Name = 
REMARK  14 active torsions:
REMARK  status: ('A' for Active; 'I' for Inactive)
REMARK    1  A    between atoms: C_2  and  C_3
REMARK    2  A    between atoms: C_3  and  C_4
REMARK    3  A    between atoms: C_4  and  C_5
REMARK    4  A    between atoms: C_5  and  C_6
REMARK    5  A    between atoms: C_6  and  C_7
REMARK    6  A    between atoms: C_7  and  N_8
REMARK    7  A    between atoms: N_8  and  C_9
REMARK    8  A    between atoms: N_8  and  C_11
REMARK    9  A    between atoms: C_11  and  C_12
REMARK   10  A    between atoms: C_12  and  C_13
REMARK   11  A    between atoms: C_13  and  C_14
REMARK   12  A    between atoms: C_14  and  C_16
REMARK   13  A    between atoms: C_19  and  N_20
REMARK   14  A    between atoms: N_20  and  S_21
REMARK                            x       y       z     vdW  Elec       q    Type
REMARK                         _______ _______ _______ _____ _____    ______ ____
ROOT
ATOM      1  C   UNL     1      -7.786  15.982  66.839  0.00  0.00    +0.039 C 
ENDROOT
BRANCH   1   2
ATOM      2  C   UNL     1      -8.326  16.779  68.186  0.00  0.00    +0.174 C 
ATOM      3  O   UNL     1      -7.733  15.724  69.109  0.00  0.00    -0.218 OA
BRANCH   2   4
ATOM      4  C   UNL     1      -7.003  17.738  68.273  0.00  0.00    +0.008 A 
ATOM      5  C   UNL     1      -7.352  19.088  68.311  0.00  0.00    -0.000 A 
ATOM      6  C   UNL     1      -6.830  19.999  69.179  0.00  0.00    +0.018 A 
ATOM      7  C   UNL     1      -6.017  19.557  70.212  0.00  0.00    +0.091 A 
ATOM      8  C   UNL     1      -5.668  18.234  70.268  0.00  0.00    +0.018 A 
ATOM      9  C   UNL     1      -6.256  17.348  69.383  0.00  0.00    -0.000 A 
BRANCH   7  10
ATOM     10  N   UNL     1      -5.814  20.441  71.323  0.00  0.00    -0.101 NA
BRANCH  10  11
ATOM     11  S   UNL     1      -4.246  21.053  71.674  0.00  0.00    +0.075 S 
ATOM     12  O   UNL     1      -3.604  20.051  72.575  0.00  0.00    -0.153 OA
ATOM     13  O   UNL     1      -4.406  22.385  72.312  0.00  0.00    -0.153 OA
ATOM     14  C   UNL     1      -3.338  21.099  70.168  0.00  0.00    +0.202 C 
ENDBRANCH  10  11
ENDBRANCH   7  10
ENDBRANCH   2   4
ENDBRANCH   1   2
BRANCH   1  15
ATOM     15  C   UNL     1      -9.120  15.514  66.260  0.00  0.00    +0.020 C 
BRANCH  15  16
ATOM     16  C   UNL     1      -9.353  14.082  66.636  0.00  0.00    +0.072 C 
BRANCH  16  17
ATOM     17  N   UNL     1     -10.692  13.706  66.856  0.00  0.00    -0.273 NA
BRANCH  17  18
ATOM     18  C   UNL     1     -11.347  13.343  65.643  0.00  0.00    +0.072 C 
ATOM     19  C   UNL     1     -12.731  13.965  65.661  0.00  0.00    +0.019 C 
ENDBRANCH  17  18
BRANCH  17  20
ATOM     20  C   UNL     1     -11.462  14.542  67.730  0.00  0.00    +0.072 C 
BRANCH  20  21
ATOM     21  C   UNL     1     -10.964  14.224  69.129  0.00  0.00    +0.017 C 
BRANCH  21  22
ATOM     22  C   UNL     1     -11.623  15.055  70.189  0.00  0.00    +0.001 C 
BRANCH  22  23
ATOM     23  C   UNL     1     -12.905  14.423  70.709  0.00  0.00    +0.000 C 
BRANCH  23  24
ATOM     24  C   UNL     1     -13.450  15.283  71.828  0.00  0.00    +0.000 C 
BRANCH  24  26
ATOM     25  C   UNL     1     -12.467  15.622  74.064  0.00  0.00    +0.000 C 
ATOM     26  C   UNL     1     -12.345  15.948  72.596  0.00  0.00    +0.000 C 
ENDBRANCH  24  26
ENDBRANCH  23  24
ENDBRANCH  22  23
ENDBRANCH  21  22
ENDBRANCH  20  21
ENDBRANCH  17  20
ENDBRANCH  16  17
ENDBRANCH  15  16
ENDBRANCH   1  15
TORSDOF 14
ENDMDL
MODEL 2
REMARK VINA RESULT:      -5.7      4.039      7.786
REMARK  Name = 
REMARK  14 active torsions:
REMARK  status: ('A' for Active; 'I' for Inactive)
REMARK    1  A    between atoms: C_2  and  C_3
REMARK    2  A    between atoms: C_3  and  C_4
REMARK    3  A    between atoms: C_4  and  C_5
REMARK    4  A    between atoms: C_5  and  C_6
REMARK    5  A    between atoms: C_6  and  C_7
REMARK    6  A    between atoms: C_7  and  N_8
REMARK    7  A    between atoms: N_8  and  C_9
REMARK    8  A    between atoms: N_8  and  C_11
REMARK    9  A    between atoms: C_11  and  C_12
REMARK   10  A    between atoms: C_12  and  C_13
REMARK   11  A    between atoms: C_13  and  C_14
REMARK   12  A    between atoms: C_14  and  C_16
REMARK   13  A    between atoms: C_19  and  N_20
REMARK   14  A    between atoms: N_20  and  S_21
REMARK                            x       y       z     vdW  Elec       q    Type
REMARK                         _______ _______ _______ _____ _____    ______ ____
ROOT
ATOM      1  C   UNL     1     -10.075  15.847  66.112  0.00  0.00    +0.039 C 
ENDROOT
BRANCH   1   2
ATOM      2  C   UNL     1     -10.317  14.241  66.432  0.00  0.00    +0.174 C 
ATOM      3  O   UNL     1      -9.313  14.266  67.575  0.00  0.00    -0.218 OA
BRANCH   2   4
ATOM      4  C   UNL     1     -11.592  14.524  67.417  0.00  0.00    +0.008 A 
ATOM      5  C   UNL     1     -11.812  13.456  68.286  0.00  0.00    -0.000 A 
ATOM      6  C   UNL     1     -12.037  13.580  69.625  0.00  0.00    +0.018 A 
ATOM      7  C   UNL     1     -11.882  14.822  70.222  0.00  0.00    +0.091 A 
ATOM      8  C   UNL     1     -11.618  15.913  69.436  0.00  0.00    +0.018 A 
ATOM      9  C   UNL     1     -11.364  15.722  68.090  0.00  0.00    -0.000 A 
BRANCH   7  10
ATOM     10  N   UNL     1     -11.723  14.860  71.646  0.00  0.00    -0.101 NA
BRANCH  10  11
ATOM     11  S   UNL     1     -13.096  15.000  72.673  0.00  0.00    +0.075 S 
ATOM     12  O   UNL     1     -13.624  13.616  72.847  0.00  0.00    -0.153 OA
ATOM     13  O   UNL     1     -14.068  15.911  72.016  0.00  0.00    -0.153 OA
ATOM     14  C   UNL     1     -12.539  15.577  74.239  0.00  0.00    +0.202 C 
ENDBRANCH  10  11
ENDBRANCH   7  10
ENDBRANCH   2   4
ENDBRANCH   1   2
BRANCH   1  15
ATOM     15  C   UNL     1      -8.551  15.902  66.186  0.00  0.00    +0.020 C 
BRANCH  15  16
ATOM     16  C   UNL     1      -8.106  17.328  66.310  0.00  0.00    +0.072 C 
BRANCH  16  17
ATOM     17  N   UNL     1      -8.972  18.191  67.010  0.00  0.00    -0.273 NA
BRANCH  17  18
ATOM     18  C   UNL     1      -9.180  19.414  66.309  0.00  0.00    +0.072 C 
ATOM     19  C   UNL     1      -9.911  20.362  67.241  0.00  0.00    +0.019 C 
ENDBRANCH  17  18
BRANCH  17  20
ATOM     20  C   UNL     1      -8.740  18.334  68.417  0.00  0.00    +0.072 C 
BRANCH  20  21
ATOM     21  C   UNL     1      -7.230  18.408  68.569  0.00  0.00    +0.017 C 
BRANCH  21  22
ATOM     22  C   UNL     1      -6.780  19.575  69.396  0.00  0.00    +0.001 C 
BRANCH  22  23
ATOM     23  C   UNL     1      -5.648  20.350  68.738  0.00  0.00    +0.000 C 
BRANCH  23  24
ATOM     24  C   UNL     1      -6.216  21.158  67.592  0.00  0.00    +0.000 C 
BRANCH  24  26
ATOM     25  C   UNL     1      -5.443  19.881  65.630  0.00  0.00    +0.000 C 
ATOM     26  C   UNL     1      -5.289  21.161  66.412  0.00  0.00    +0.000 C 
ENDBRANCH  24  26
ENDBRANCH  23  24
ENDBRANCH  22  23
ENDBRANCH  21  22
ENDBRANCH  20  21
ENDBRANCH  17  20
ENDBRANCH  16  17
ENDBRANCH  15  16
ENDBRANCH   1  15
TORSDOF 14
ENDMDL
MODEL 3
REMARK VINA RESULT:      -5.7      5.092      6.589
REMARK  Name = 
REMARK  14 active torsions:
REMARK  status: ('A' for Active; 'I' for Inactive)
REMARK    1  A    between atoms: C_2  and  C_3
REMARK    2  A    between atoms: C_3  and  C_4
REMARK    3  A    between atoms: C_4  and  C_5
REMARK    4  A    between atoms: C_5  and  C_6
REMARK    5  A    between atoms: C_6  and  C_7
REMARK    6  A    between atoms: C_7  and  N_8
REMARK    7  A    between atoms: N_8  and  C_9
REMARK    8  A    between atoms: N_8  and  C_11
REMARK    9  A    between atoms: C_11  and  C_12
REMARK   10  A    between atoms: C_12  and  C_13
REMARK   11  A    between atoms: C_13  and  C_14
REMARK   12  A    between atoms: C_14  and  C_16
REMARK   13  A    between atoms: C_19  and  N_20
REMARK   14  A    between atoms: N_20  and  S_21
REMARK                            x       y       z     vdW  Elec       q    Type
REMARK                         _______ _______ _______ _____ _____    ______ ____
ROOT
ATOM      1  C   UNL     1     -11.182  14.633  65.212  0.00  0.00    +0.039 C 
ENDROOT
BRANCH   1   2
ATOM      2  C   UNL     1     -10.116  15.063  66.403  0.00  0.00    +0.174 C 
ATOM      3  O   UNL     1      -9.959  16.463  65.826  0.00  0.00    -0.218 OA
BRANCH   2   4
ATOM      4  C   UNL     1     -11.297  15.518  67.439  0.00  0.00    +0.008 A 
ATOM      5  C   UNL     1     -11.907  14.413  68.034  0.00  0.00    -0.000 A 
ATOM      6  C   UNL     1     -12.172  14.299  69.366  0.00  0.00    +0.018 A 
ATOM      7  C   UNL     1     -11.669  15.254  70.238  0.00  0.00    +0.091 A 
ATOM      8  C   UNL     1     -11.016  16.345  69.729  0.00  0.00    +0.018 A 
ATOM      9  C   UNL     1     -10.744  16.391  68.373  0.00  0.00    -0.000 A 
BRANCH   7  10
ATOM     10  N   UNL     1     -11.605  14.915  71.629  0.00  0.00    -0.101 NA
BRANCH  10  11
ATOM     11  S   UNL     1     -13.005  15.034  72.621  0.00  0.00    +0.075 S 
ATOM     12  O   UNL     1     -13.497  13.639  72.809  0.00  0.00    -0.153 OA
ATOM     13  O   UNL     1     -13.987  15.905  71.925  0.00  0.00    -0.153 OA
ATOM     14  C   UNL     1     -12.501  15.655  74.188  0.00  0.00    +0.202 C 
ENDBRANCH  10  11
ENDBRANCH   7  10
ENDBRANCH   2   4
ENDBRANCH   1   2
BRANCH   1  15
ATOM     15  C   UNL     1     -10.483  13.388  64.671  0.00  0.00    +0.020 C 
BRANCH  15  16
ATOM     16  C   UNL     1     -11.013  12.173  65.370  0.00  0.00    +0.072 C 
BRANCH  16  17
ATOM     17  N   UNL     1     -10.058  11.344  65.990  0.00  0.00    -0.273 NA
BRANCH  17  18
ATOM     18  C   UNL     1     -10.095  10.016  65.474  0.00  0.00    +0.072 C 
ATOM     19  C   UNL     1      -9.287   9.997  64.190  0.00  0.00    +0.019 C 
ENDBRANCH  17  18
BRANCH  17  20
ATOM     20  C   UNL     1      -9.955  11.434  67.416  0.00  0.00    +0.072 C 
BRANCH  20  21
ATOM     21  C   UNL     1     -10.932  10.403  67.954  0.00  0.00    +0.017 C 
BRANCH  21  22
ATOM     22  C   UNL     1     -11.602  10.836  69.224  0.00  0.00    +0.001 C 
BRANCH  22  23
ATOM     23  C   UNL     1     -11.676   9.716  70.252  0.00  0.00    +0.000 C 
BRANCH  23  24
ATOM     24  C   UNL     1     -12.629  10.131  71.352  0.00  0.00    +0.000 C 
BRANCH  24  26
ATOM     25  C   UNL     1     -14.290   8.390  71.888  0.00  0.00    +0.000 C 
ATOM     26  C   UNL     1     -12.953   8.980  72.259  0.00  0.00    +0.000 C 
ENDBRANCH  24  26
ENDBRANCH  23  24
ENDBRANCH  22  23
ENDBRANCH  21  22
ENDBRANCH  20  21
ENDBRANCH  17  20
ENDBRANCH  16  17
ENDBRANCH  15  16
ENDBRANCH   1  15
TORSDOF 14
ENDMDL
MODEL 4
REMARK VINA RESULT:      -5.6      4.981      7.446
REMARK  Name = 
REMARK  14 active torsions:
REMARK  status: ('A' for Active; 'I' for Inactive)
REMARK    1  A    between atoms: C_2  and  C_3
REMARK    2  A    between atoms: C_3  and  C_4
REMARK    3  A    between atoms: C_4  and  C_5
REMARK    4  A    between atoms: C_5  and  C_6
REMARK    5  A    between atoms: C_6  and  C_7
REMARK    6  A    between atoms: C_7  and  N_8
REMARK    7  A    between atoms: N_8  and  C_9
REMARK    8  A    between atoms: N_8  and  C_11
REMARK    9  A    between atoms: C_11  and  C_12
REMARK   10  A    between atoms: C_12  and  C_13
REMARK   11  A    between atoms: C_13  and  C_14
REMARK   12  A    between atoms: C_14  and  C_16
REMARK   13  A    between atoms: C_19  and  N_20
REMARK   14  A    between atoms: N_20  and  S_21
REMARK                            x       y       z     vdW  Elec       q    Type
REMARK                         _______ _______ _______ _____ _____    ______ ____
ROOT
ATOM      1  C   UNL     1     -10.831  10.081  67.326  0.00  0.00    +0.039 C 
ENDROOT
BRANCH   1   2
ATOM      2  C   UNL     1     -10.389  10.480  68.870  0.00  0.00    +0.174 C 
ATOM      3  O   UNL     1      -9.751  11.781  68.405  0.00  0.00    -0.218 OA
BRANCH   2   4
ATOM      4  C   UNL     1     -11.823  11.191  69.207  0.00  0.00    +0.008 A 
ATOM      5  C   UNL     1     -12.300  10.809  70.461  0.00  0.00    -0.000 A 
ATOM      6  C   UNL     1     -12.799  11.669  71.393  0.00  0.00    +0.018 A 
ATOM      7  C   UNL     1     -12.691  13.035  71.178  0.00  0.00    +0.091 A 
ATOM      8  C   UNL     1     -12.187  13.486  69.986  0.00  0.00    +0.018 A 
ATOM      9  C   UNL     1     -11.663  12.570  69.092  0.00  0.00    -0.000 A 
BRANCH   7  10
ATOM     10  N   UNL     1     -12.841  13.901  72.311  0.00  0.00    -0.101 NA
BRANCH  10  11
ATOM     11  S   UNL     1     -13.601  15.434  72.141  0.00  0.00    +0.075 S 
ATOM     12  O   UNL     1     -12.809  16.175  71.116  0.00  0.00    -0.153 OA
ATOM     13  O   UNL     1     -13.593  16.100  73.469  0.00  0.00    -0.153 OA
ATOM     14  C   UNL     1     -15.216  15.164  71.499  0.00  0.00    +0.202 C 
ENDBRANCH  10  11
ENDBRANCH   7  10
ENDBRANCH   2   4
ENDBRANCH   1   2
BRANCH   1  15
ATOM     15  C   UNL     1      -9.825  10.920  66.541  0.00  0.00    +0.020 C 
BRANCH  15  16
ATOM     16  C   UNL     1     -10.496  11.505  65.335  0.00  0.00    +0.072 C 
BRANCH  16  17
ATOM     17  N   UNL     1     -11.171  12.726  65.528  0.00  0.00    -0.273 NA
BRANCH  17  18
ATOM     18  C   UNL     1     -12.415  12.760  64.833  0.00  0.00    +0.072 C 
ATOM     19  C   UNL     1     -12.232  12.016  63.523  0.00  0.00    +0.019 C 
ENDBRANCH  17  18
BRANCH  17  20
ATOM     20  C   UNL     1     -10.387  13.921  65.420  0.00  0.00    +0.072 C 
BRANCH  20  21
ATOM     21  C   UNL     1     -11.068  14.931  66.327  0.00  0.00    +0.017 C 
BRANCH  21  22
ATOM     22  C   UNL     1     -10.163  15.460  67.400  0.00  0.00    +0.001 C 
BRANCH  22  23
ATOM     23  C   UNL     1     -10.750  16.672  68.109  0.00  0.00    +0.000 C 
BRANCH  23  24
ATOM     24  C   UNL     1      -9.846  17.860  67.863  0.00  0.00    +0.000 C 
BRANCH  24  26
ATOM     25  C   UNL     1      -9.903  20.298  67.498  0.00  0.00    +0.000 C 
ATOM     26  C   UNL     1     -10.589  18.986  67.206  0.00  0.00    +0.000 C 
ENDBRANCH  24  26
ENDBRANCH  23  24
ENDBRANCH  22  23
ENDBRANCH  21  22
ENDBRANCH  20  21
ENDBRANCH  17  20
ENDBRANCH  16  17
ENDBRANCH  15  16
ENDBRANCH   1  15
TORSDOF 14
ENDMDL
MODEL 5
REMARK VINA RESULT:      -5.6      5.565      8.010
REMARK  Name = 
REMARK  14 active torsions:
REMARK  status: ('A' for Active; 'I' for Inactive)
REMARK    1  A    between atoms: C_2  and  C_3
REMARK    2  A    between atoms: C_3  and  C_4
REMARK    3  A    between atoms: C_4  and  C_5
REMARK    4  A    between atoms: C_5  and  C_6
REMARK    5  A    between atoms: C_6  and  C_7
REMARK    6  A    between atoms: C_7  and  N_8
REMARK    7  A    between atoms: N_8  and  C_9
REMARK    8  A    between atoms: N_8  and  C_11
REMARK    9  A    between atoms: C_11  and  C_12
REMARK   10  A    between atoms: C_12  and  C_13
REMARK   11  A    between atoms: C_13  and  C_14
REMARK   12  A    between atoms: C_14  and  C_16
REMARK   13  A    between atoms: C_19  and  N_20
REMARK   14  A    between atoms: N_20  and  S_21
REMARK                            x       y       z     vdW  Elec       q    Type
REMARK                         _______ _______ _______ _____ _____    ______ ____
ROOT
ATOM      1  C   UNL     1     -10.504  13.738  66.154  0.00  0.00    +0.039 C 
ENDROOT
BRANCH   1   2
ATOM      2  C   UNL     1     -11.835  13.400  67.078  0.00  0.00    +0.174 C 
ATOM      3  O   UNL     1     -12.038  12.060  66.386  0.00  0.00    -0.218 OA
BRANCH   2   4
ATOM      4  C   UNL     1     -10.954  12.749  68.293  0.00  0.00    +0.008 A 
ATOM      5  C   UNL     1     -11.773  12.241  69.301  0.00  0.00    -0.000 A 
ATOM      6  C   UNL     1     -11.615  11.018  69.883  0.00  0.00    +0.018 A 
ATOM      7  C   UNL     1     -10.693  10.130  69.349  0.00  0.00    +0.091 A 
ATOM      8  C   UNL     1      -9.884  10.544  68.323  0.00  0.00    +0.018 A 
ATOM      9  C   UNL     1     -10.112  11.782  67.749  0.00  0.00    -0.000 A 
BRANCH   7  10
ATOM     10  N   UNL     1     -10.822   8.746  69.698  0.00  0.00    -0.101 NA
BRANCH  10  11
ATOM     11  S   UNL     1     -10.246   8.173  71.214  0.00  0.00    +0.075 S 
ATOM     12  O   UNL     1      -9.205   9.146  71.655  0.00  0.00    -0.153 OA
ATOM     13  O   UNL     1      -9.707   6.803  71.011  0.00  0.00    -0.153 OA
ATOM     14  C   UNL     1     -11.581   8.241  72.357  0.00  0.00    +0.202 C 
ENDBRANCH  10  11
ENDBRANCH   7  10
ENDBRANCH   2   4
ENDBRANCH   1   2
BRANCH   1  15
ATOM     15  C   UNL     1     -10.817  15.180  65.761  0.00  0.00    +0.020 C 
BRANCH  15  16
ATOM     16  C   UNL     1      -9.738  16.084  66.276  0.00  0.00    +0.072 C 
BRANCH  16  17
ATOM     17  N   UNL     1     -10.133  17.052  67.220  0.00  0.00    -0.273 NA
BRANCH  17  18
ATOM     18  C   UNL     1     -10.417  18.306  66.606  0.00  0.00    +0.072 C 
ATOM     19  C   UNL     1     -10.362  19.372  67.684  0.00  0.00    +0.019 C 
ENDBRANCH  17  18
BRANCH  17  20
ATOM     20  C   UNL     1      -9.360  17.131  68.424  0.00  0.00    +0.072 C 
BRANCH  20  21
ATOM     21  C   UNL     1      -9.887  16.018  69.313  0.00  0.00    +0.017 C 
BRANCH  21  22
ATOM     22  C   UNL     1     -11.354  16.140  69.599  0.00  0.00    +0.001 C 
BRANCH  22  23
ATOM     23  C   UNL     1     -11.676  15.940  71.073  0.00  0.00    +0.000 C 
BRANCH  23  24
ATOM     24  C   UNL     1     -13.096  15.433  71.194  0.00  0.00    +0.000 C 
BRANCH  24  26
ATOM     25  C   UNL     1     -12.573  15.176  73.590  0.00  0.00    +0.000 C 
ATOM     26  C   UNL     1     -13.263  14.556  72.401  0.00  0.00    +0.000 C 
ENDBRANCH  24  26
ENDBRANCH  23  24
ENDBRANCH  22  23
ENDBRANCH  21  22
ENDBRANCH  20  21
ENDBRANCH  17  20
ENDBRANCH  16  17
ENDBRANCH  15  16
ENDBRANCH   1  15
TORSDOF 14
ENDMDL
MODEL 6
REMARK VINA RESULT:      -5.6      4.057      5.684
REMARK  Name = 
REMARK  14 active torsions:
REMARK  status: ('A' for Active; 'I' for Inactive)
REMARK    1  A    between atoms: C_2  and  C_3
REMARK    2  A    between atoms: C_3  and  C_4
REMARK    3  A    between atoms: C_4  and  C_5
REMARK    4  A    between atoms: C_5  and  C_6
REMARK    5  A    between atoms: C_6  and  C_7
REMARK    6  A    between atoms: C_7  and  N_8
REMARK    7  A    between atoms: N_8  and  C_9
REMARK    8  A    between atoms: N_8  and  C_11
REMARK    9  A    between atoms: C_11  and  C_12
REMARK   10  A    between atoms: C_12  and  C_13
REMARK   11  A    between atoms: C_13  and  C_14
REMARK   12  A    between atoms: C_14  and  C_16
REMARK   13  A    between atoms: C_19  and  N_20
REMARK   14  A    between atoms: N_20  and  S_21
REMARK                            x       y       z     vdW  Elec       q    Type
REMARK                         _______ _______ _______ _____ _____    ______ ____
ROOT
ATOM      1  C   UNL     1     -10.719  12.480  67.540  0.00  0.00    +0.039 C 
ENDROOT
BRANCH   1   2
ATOM      2  C   UNL     1     -11.699  12.881  66.267  0.00  0.00    +0.174 C 
ATOM      3  O   UNL     1     -12.274  14.072  67.020  0.00  0.00    -0.218 OA
BRANCH   2   4
ATOM      4  C   UNL     1     -10.547  13.780  65.531  0.00  0.00    +0.008 A 
ATOM      5  C   UNL     1     -11.074  14.967  65.023  0.00  0.00    -0.000 A 
ATOM      6  C   UNL     1     -10.506  16.196  65.183  0.00  0.00    +0.018 A 
ATOM      7  C   UNL     1      -9.422  16.333  66.037  0.00  0.00    +0.091 A 
ATOM      8  C   UNL     1      -8.878  15.214  66.611  0.00  0.00    +0.018 A 
ATOM      9  C   UNL     1      -9.517  13.998  66.443  0.00  0.00    -0.000 A 
BRANCH   7  10
ATOM     10  N   UNL     1      -9.103  17.651  66.500  0.00  0.00    -0.101 NA
BRANCH  10  11
ATOM     11  S   UNL     1     -10.201  18.511  67.506  0.00  0.00    +0.075 S 
ATOM     12  O   UNL     1     -11.055  17.478  68.162  0.00  0.00    -0.153 OA
ATOM     13  O   UNL     1     -10.977  19.442  66.648  0.00  0.00    -0.153 OA
ATOM     14  C   UNL     1      -9.263  19.321  68.755  0.00  0.00    +0.202 C 
ENDBRANCH  10  11
ENDBRANCH   7  10
ENDBRANCH   2   4
ENDBRANCH   1   2
BRANCH   1  15
ATOM     15  C   UNL     1     -11.732  11.776  68.439  0.00  0.00    +0.020 C 
BRANCH  15  16
ATOM     16  C   UNL     1     -11.024  10.783  69.310  0.00  0.00    +0.072 C 
BRANCH  16  17
ATOM     17  N   UNL     1     -11.538  10.616  70.610  0.00  0.00    -0.273 NA
BRANCH  17  18
ATOM     18  C   UNL     1     -11.040   9.432  71.228  0.00  0.00    +0.072 C 
ATOM     19  C   UNL     1      -9.729   9.074  70.553  0.00  0.00    +0.019 C 
ENDBRANCH  17  18
BRANCH  17  20
ATOM     20  C   UNL     1     -12.943  10.841  70.782  0.00  0.00    +0.072 C 
BRANCH  20  21
ATOM     21  C   UNL     1     -13.054  11.796  71.958  0.00  0.00    +0.017 C 
BRANCH  21  22
ATOM     22  C   UNL     1     -13.501  13.171  71.556  0.00  0.00    +0.001 C 
BRANCH  22  23
ATOM     23  C   UNL     1     -12.330  14.112  71.312  0.00  0.00    +0.000 C 
BRANCH  23  24
ATOM     24  C   UNL     1     -12.813  15.537  71.480  0.00  0.00    +0.000 C 
BRANCH  24  26
ATOM     25  C   UNL     1     -12.604  15.786  73.923  0.00  0.00    +0.000 C 
ATOM     26  C   UNL     1     -13.567  15.712  72.765  0.00  0.00    +0.000 C 
ENDBRANCH  24  26
ENDBRANCH  23  24
ENDBRANCH  22  23
ENDBRANCH  21  22
ENDBRANCH  20  21
ENDBRANCH  17  20
ENDBRANCH  16  17
ENDBRANCH  15  16
ENDBRANCH   1  15
TORSDOF 14
ENDMDL
MODEL 7
REMARK VINA RESULT:      -5.6      4.306      5.954
REMARK  Name = 
REMARK  14 active torsions:
REMARK  status: ('A' for Active; 'I' for Inactive)
REMARK    1  A    between atoms: C_2  and  C_3
REMARK    2  A    between atoms: C_3  and  C_4
REMARK    3  A    between atoms: C_4  and  C_5
REMARK    4  A    between atoms: C_5  and  C_6
REMARK    5  A    between atoms: C_6  and  C_7
REMARK    6  A    between atoms: C_7  and  N_8
REMARK    7  A    between atoms: N_8  and  C_9
REMARK    8  A    between atoms: N_8  and  C_11
REMARK    9  A    between atoms: C_11  and  C_12
REMARK   10  A    between atoms: C_12  and  C_13
REMARK   11  A    between atoms: C_13  and  C_14
REMARK   12  A    between atoms: C_14  and  C_16
REMARK   13  A    between atoms: C_19  and  N_20
REMARK   14  A    between atoms: N_20  and  S_21
REMARK                            x       y       z     vdW  Elec       q    Type
REMARK                         _______ _______ _______ _____ _____    ______ ____
ROOT
ATOM      1  C   UNL     1      -9.983  11.073  67.802  0.00  0.00    +0.039 C 
ENDROOT
BRANCH   1   2
ATOM      2  C   UNL     1     -10.712  12.268  66.918  0.00  0.00    +0.174 C 
ATOM      3  O   UNL     1     -12.100  11.750  67.268  0.00  0.00    -0.218 OA
BRANCH   2   4
ATOM      4  C   UNL     1     -10.693  13.337  68.157  0.00  0.00    +0.008 A 
ATOM      5  C   UNL     1      -9.471  14.005  68.236  0.00  0.00    -0.000 A 
ATOM      6  C   UNL     1      -9.334  15.351  68.398  0.00  0.00    +0.018 A 
ATOM      7  C   UNL     1     -10.460  16.158  68.318  0.00  0.00    +0.091 A 
ATOM      8  C   UNL     1     -11.693  15.574  68.192  0.00  0.00    +0.018 A 
ATOM      9  C   UNL     1     -11.769  14.207  67.997  0.00  0.00    -0.000 A 
BRANCH   7  10
ATOM     10  N   UNL     1     -10.259  17.559  68.086  0.00  0.00    -0.101 NA
BRANCH  10  11
ATOM     11  S   UNL     1      -9.745  18.120  66.543  0.00  0.00    +0.075 S 
ATOM     12  O   UNL     1     -10.308  17.163  65.547  0.00  0.00    -0.153 OA
ATOM     13  O   UNL     1      -8.260  18.154  66.539  0.00  0.00    -0.153 OA
ATOM     14  C   UNL     1     -10.485  19.693  66.272  0.00  0.00    +0.202 C 
ENDBRANCH  10  11
ENDBRANCH   7  10
ENDBRANCH   2   4
ENDBRANCH   1   2
BRANCH   1  15
ATOM     15  C   UNL     1     -11.190  10.547  68.577  0.00  0.00    +0.020 C 
BRANCH  15  16
ATOM     16  C   UNL     1     -10.738  10.004  69.898  0.00  0.00    +0.072 C 
BRANCH  16  17
ATOM     17  N   UNL     1     -11.598  10.226  70.991  0.00  0.00    -0.273 NA
BRANCH  17  18
ATOM     18  C   UNL     1     -11.719   9.069  71.814  0.00  0.00    +0.072 C 
ATOM     19  C   UNL     1     -10.953   7.943  71.144  0.00  0.00    +0.019 C 
ENDBRANCH  17  18
BRANCH  17  20
ATOM     20  C   UNL     1     -12.833  10.900  70.712  0.00  0.00    +0.072 C 
BRANCH  20  21
ATOM     21  C   UNL     1     -12.569  12.363  71.024  0.00  0.00    +0.017 C 
BRANCH  21  22
ATOM     22  C   UNL     1     -13.370  12.868  72.187  0.00  0.00    +0.001 C 
BRANCH  22  23
ATOM     23  C   UNL     1     -14.104  14.162  71.867  0.00  0.00    +0.000 C 
BRANCH  23  24
ATOM     24  C   UNL     1     -13.082  15.255  71.642  0.00  0.00    +0.000 C 
BRANCH  24  26
ATOM     25  C   UNL     1     -12.582  15.925  73.961  0.00  0.00    +0.000 C 
ATOM     26  C   UNL     1     -12.039  15.260  72.722  0.00  0.00    +0.000 C 
ENDBRANCH  24  26
ENDBRANCH  23  24
ENDBRANCH  22  23
ENDBRANCH  21  22
ENDBRANCH  20  21
ENDBRANCH  17  20
ENDBRANCH  16  17
ENDBRANCH  15  16
ENDBRANCH   1  15
TORSDOF 14
ENDMDL
MODEL 8
REMARK VINA RESULT:      -5.6      4.381      7.397
REMARK  Name = 
REMARK  14 active torsions:
REMARK  status: ('A' for Active; 'I' for Inactive)
REMARK    1  A    between atoms: C_2  and  C_3
REMARK    2  A    between atoms: C_3  and  C_4
REMARK    3  A    between atoms: C_4  and  C_5
REMARK    4  A    between atoms: C_5  and  C_6
REMARK    5  A    between atoms: C_6  and  C_7
REMARK    6  A    between atoms: C_7  and  N_8
REMARK    7  A    between atoms: N_8  and  C_9
REMARK    8  A    between atoms: N_8  and  C_11
REMARK    9  A    between atoms: C_11  and  C_12
REMARK   10  A    between atoms: C_12  and  C_13
REMARK   11  A    between atoms: C_13  and  C_14
REMARK   12  A    between atoms: C_14  and  C_16
REMARK   13  A    between atoms: C_19  and  N_20
REMARK   14  A    between atoms: N_20  and  S_21
REMARK                            x       y       z     vdW  Elec       q    Type
REMARK                         _______ _______ _______ _____ _____    ______ ____
ROOT
ATOM      1  C   UNL     1      -9.715  16.164  69.100  0.00  0.00    +0.039 C 
ENDROOT
BRANCH   1   2
ATOM      2  C   UNL     1      -9.624  17.652  68.382  0.00  0.00    +0.174 C 
ATOM      3  O   UNL     1      -8.187  17.844  68.844  0.00  0.00    -0.218 OA
BRANCH   2   4
ATOM      4  C   UNL     1      -9.179  17.039  66.932  0.00  0.00    +0.008 A 
ATOM      5  C   UNL     1      -8.824  15.694  67.035  0.00  0.00    -0.000 A 
ATOM      6  C   UNL     1      -9.248  14.714  66.187  0.00  0.00    +0.018 A 
ATOM      7  C   UNL     1     -10.225  15.011  65.249  0.00  0.00    +0.091 A 
ATOM      8  C   UNL     1     -10.658  16.305  65.122  0.00  0.00    +0.018 A 
ATOM      9  C   UNL     1     -10.220  17.250  66.032  0.00  0.00    -0.000 A 
BRANCH   7  10
ATOM     10  N   UNL     1     -10.936  13.915  64.659  0.00  0.00    -0.101 NA
BRANCH  10  11
ATOM     11  S   UNL     1     -12.012  12.964  65.605  0.00  0.00    +0.075 S 
ATOM     12  O   UNL     1     -13.058  12.467  64.665  0.00  0.00    -0.153 OA
ATOM     13  O   UNL     1     -12.564  13.829  66.679  0.00  0.00    -0.153 OA
ATOM     14  C   UNL     1     -11.114  11.578  66.210  0.00  0.00    +0.202 C 
ENDBRANCH  10  11
ENDBRANCH   7  10
ENDBRANCH   2   4
ENDBRANCH   1   2
BRANCH   1  15
ATOM     15  C   UNL     1     -10.985  16.349  69.927  0.00  0.00    +0.020 C 
BRANCH  15  16
ATOM     16  C   UNL     1     -11.780  15.079  69.914  0.00  0.00    +0.072 C 
BRANCH  16  17
ATOM     17  N   UNL     1     -12.415  14.728  71.121  0.00  0.00    -0.273 NA
BRANCH  17  18
ATOM     18  C   UNL     1     -11.797  15.349  72.245  0.00  0.00    +0.072 C 
ATOM     19  C   UNL     1     -12.643  15.041  73.467  0.00  0.00    +0.019 C 
ENDBRANCH  17  18
BRANCH  17  20
ATOM     20  C   UNL     1     -12.740  13.344  71.300  0.00  0.00    +0.072 C 
BRANCH  20  21
ATOM     21  C   UNL     1     -12.031  12.617  70.171  0.00  0.00    +0.017 C 
BRANCH  21  22
ATOM     22  C   UNL     1     -12.128  11.124  70.281  0.00  0.00    +0.001 C 
BRANCH  22  23
ATOM     23  C   UNL     1     -12.927  10.683  71.499  0.00  0.00    +0.000 C 
BRANCH  23  24
ATOM     24  C   UNL     1     -12.705   9.202  71.712  0.00  0.00    +0.000 C 
BRANCH  24  26
ATOM     25  C   UNL     1     -11.062   7.764  72.858  0.00  0.00    +0.000 C 
ATOM     26  C   UNL     1     -11.247   8.882  71.862  0.00  0.00    +0.000 C 
ENDBRANCH  24  26
ENDBRANCH  23  24
ENDBRANCH  22  23
ENDBRANCH  21  22
ENDBRANCH  20  21
ENDBRANCH  17  20
ENDBRANCH  16  17
ENDBRANCH  15  16
ENDBRANCH   1  15
TORSDOF 14
ENDMDL
MODEL 9
REMARK VINA RESULT:      -5.5      1.888      2.338
REMARK  Name = 
REMARK  14 active torsions:
REMARK  status: ('A' for Active; 'I' for Inactive)
REMARK    1  A    between atoms: C_2  and  C_3
REMARK    2  A    between atoms: C_3  and  C_4
REMARK    3  A    between atoms: C_4  and  C_5
REMARK    4  A    between atoms: C_5  and  C_6
REMARK    5  A    between atoms: C_6  and  C_7
REMARK    6  A    between atoms: C_7  and  N_8
REMARK    7  A    between atoms: N_8  and  C_9
REMARK    8  A    between atoms: N_8  and  C_11
REMARK    9  A    between atoms: C_11  and  C_12
REMARK   10  A    between atoms: C_12  and  C_13
REMARK   11  A    between atoms: C_13  and  C_14
REMARK   12  A    between atoms: C_14  and  C_16
REMARK   13  A    between atoms: C_19  and  N_20
REMARK   14  A    between atoms: N_20  and  S_21
REMARK                            x       y       z     vdW  Elec       q    Type
REMARK                         _______ _______ _______ _____ _____    ______ ____
ROOT
ATOM      1  C   UNL     1      -9.621  17.678  67.010  0.00  0.00    +0.039 C 
ENDROOT
BRANCH   1   2
ATOM      2  C   UNL     1     -10.048  19.111  66.300  0.00  0.00    +0.174 C 
ATOM      3  O   UNL     1     -11.244  19.271  67.227  0.00  0.00    -0.218 OA
BRANCH   2   4
ATOM      4  C   UNL     1      -9.062  19.997  67.259  0.00  0.00    +0.008 A 
ATOM      5  C   UNL     1      -9.074  19.530  68.573  0.00  0.00    -0.000 A 
ATOM      6  C   UNL     1      -7.960  19.323  69.331  0.00  0.00    +0.018 A 
ATOM      7  C   UNL     1      -6.712  19.418  68.735  0.00  0.00    +0.091 A 
ATOM      8  C   UNL     1      -6.623  19.826  67.430  0.00  0.00    +0.018 A 
ATOM      9  C   UNL     1      -7.787  19.987  66.699  0.00  0.00    -0.000 A 
BRANCH   7  10
ATOM     10  N   UNL     1      -5.603  18.816  69.416  0.00  0.00    -0.101 NA
BRANCH  10  11
ATOM     11  S   UNL     1      -4.740  19.691  70.619  0.00  0.00    +0.075 S 
ATOM     12  O   UNL     1      -5.011  18.994  71.910  0.00  0.00    -0.153 OA
ATOM     13  O   UNL     1      -5.228  21.093  70.605  0.00  0.00    -0.153 OA
ATOM     14  C   UNL     1      -3.023  19.540  70.264  0.00  0.00    +0.202 C 
ENDBRANCH  10  11
ENDBRANCH   7  10
ENDBRANCH   2   4
ENDBRANCH   1   2
BRANCH   1  15
ATOM     15  C   UNL     1     -10.129  16.700  65.953  0.00  0.00    +0.020 C 
BRANCH  15  16
ATOM     16  C   UNL     1      -9.522  15.350  66.187  0.00  0.00    +0.072 C 
BRANCH  16  17
ATOM     17  N   UNL     1     -10.416  14.262  66.221  0.00  0.00    -0.273 NA
BRANCH  17  18
ATOM     18  C   UNL     1     -10.486  13.595  64.963  0.00  0.00    +0.072 C 
ATOM     19  C   UNL     1     -11.934  13.206  64.726  0.00  0.00    +0.019 C 
ENDBRANCH  17  18
BRANCH  17  20
ATOM     20  C   UNL     1     -11.681  14.486  66.856  0.00  0.00    +0.072 C 
BRANCH  20  21
ATOM     21  C   UNL     1     -11.417  14.319  68.343  0.00  0.00    +0.017 C 
BRANCH  21  22
ATOM     22  C   UNL     1     -12.015  15.417  69.171  0.00  0.00    +0.001 C 
BRANCH  22  23
ATOM     23  C   UNL     1     -11.073  15.894  70.268  0.00  0.00    +0.000 C 
BRANCH  23  24
ATOM     24  C   UNL     1     -11.648  15.489  71.608  0.00  0.00    +0.000 C 
BRANCH  24  26
ATOM     25  C   UNL     1     -13.698  14.330  72.338  0.00  0.00    +0.000 C 
ATOM     26  C   UNL     1     -13.148  15.521  71.593  0.00  0.00    +0.000 C 
ENDBRANCH  24  26
ENDBRANCH  23  24
ENDBRANCH  22  23
ENDBRANCH  21  22
ENDBRANCH  20  21
ENDBRANCH  17  20
ENDBRANCH  16  17
ENDBRANCH  15  16
ENDBRANCH   1  15
TORSDOF 14
ENDMDL
