MODEL 1
REMARK VINA RESULT:      -6.8      0.000      0.000
REMARK  Name = 
REMARK  5 active torsions:
REMARK  status: ('A' for Active; 'I' for Inactive)
REMARK    1  A    between atoms: O_2  and  C_3
REMARK    2  A    between atoms: C_8  and  S_9
REMARK    3  A    between atoms: S_9  and  C_11
REMARK    4  A    between atoms: C_11  and  C_12
REMARK    5  A    between atoms: C_17  and  O_18
REMARK                            x       y       z     vdW  Elec       q    Type
REMARK                         _______ _______ _______ _____ _____    ______ ____
ROOT
ATOM      1  S   UNL     1      -9.860  16.888  65.963  0.00  0.00    +0.107 S 
ATOM      2  O   UNL     1     -10.876  16.615  64.815  0.00  0.00    -0.248 OA
ENDROOT
BRANCH   1   8
ATOM      3  C   UNL     1     -12.506  14.468  71.054  0.00  0.00    +0.140 A 
ATOM      4  C   UNL     1     -12.340  15.681  70.421  0.00  0.00    +0.058 A 
ATOM      5  C   UNL     1     -11.826  15.670  69.153  0.00  0.00    +0.104 A 
ATOM      6  C   UNL     1     -11.783  14.482  68.454  0.00  0.00    +0.101 A 
ATOM      7  N   UNL     1     -11.279  14.813  67.242  0.00  0.00    -0.218 NA
ATOM      8  C   UNL     1     -10.677  16.016  67.324  0.00  0.00    +0.221 A 
ATOM      9  C   UNL     1     -11.789  13.278  69.150  0.00  0.00    +0.024 A 
ATOM     10  N   UNL     1     -11.183  16.592  68.425  0.00  0.00    -0.218 NA
ATOM     11  C   UNL     1     -12.187  13.263  70.479  0.00  0.00    +0.039 A 
BRANCH   3  13
ATOM     12  C   UNL     1     -13.490  14.511  72.774  0.00  0.00    +0.252 C 
ATOM     13  O   UNL     1     -13.199  14.501  72.268  0.00  0.00    -0.471 OA
ENDBRANCH   3  13
ENDBRANCH   1   8
BRANCH   1  14
ATOM     14  C   UNL     1     -10.296  18.629  66.373  0.00  0.00    +0.145 C 
BRANCH  14  15
ATOM     15  C   UNL     1      -9.002  19.340  66.566  0.00  0.00    +0.072 A 
ATOM     16  C   UNL     1      -8.605  19.626  67.865  0.00  0.00    +0.026 A 
ATOM     17  C   UNL     1      -9.490  19.437  69.038  0.00  0.00    +0.035 C 
ATOM     18  C   UNL     1      -7.355  20.167  68.093  0.00  0.00    +0.133 A 
ATOM     19  C   UNL     1      -6.600  20.481  66.986  0.00  0.00    +0.031 A 
ATOM     20  C   UNL     1      -5.407  21.336  67.163  0.00  0.00    +0.036 C 
ATOM     21  C   UNL     1      -6.941  19.962  65.744  0.00  0.00    +0.097 A 
ATOM     22  N   UNL     1      -8.167  19.467  65.531  0.00  0.00    -0.248 NA
BRANCH  18  23
ATOM     23  O   UNL     1      -6.731  20.023  69.334  0.00  0.00    -0.472 OA
ATOM     24  C   UNL     1      -6.023  18.836  69.598  0.00  0.00    +0.252 C 
ENDBRANCH  18  23
ENDBRANCH  14  15
ENDBRANCH   1  14
TORSDOF 5
ENDMDL
MODEL 2
REMARK VINA RESULT:      -6.8      3.293      5.527
REMARK  Name = 
REMARK  5 active torsions:
REMARK  status: ('A' for Active; 'I' for Inactive)
REMARK    1  A    between atoms: O_2  and  C_3
REMARK    2  A    between atoms: C_8  and  S_9
REMARK    3  A    between atoms: S_9  and  C_11
REMARK    4  A    between atoms: C_11  and  C_12
REMARK    5  A    between atoms: C_17  and  O_18
REMARK                            x       y       z     vdW  Elec       q    Type
REMARK                         _______ _______ _______ _____ _____    ______ ____
ROOT
ATOM      1  S   UNL     1     -10.199  17.304  66.788  0.00  0.00    +0.107 S 
ATOM      2  O   UNL     1      -9.147  18.264  67.420  0.00  0.00    -0.248 OA
ENDROOT
BRANCH   1   8
ATOM      3  C   UNL     1     -12.062  15.113  72.311  0.00  0.00    +0.140 A 
ATOM      4  C   UNL     1     -11.634  16.285  71.726  0.00  0.00    +0.058 A 
ATOM      5  C   UNL     1     -11.528  16.312  70.362  0.00  0.00    +0.104 A 
ATOM      6  C   UNL     1     -12.126  15.315  69.621  0.00  0.00    +0.101 A 
ATOM      7  N   UNL     1     -11.886  15.653  68.332  0.00  0.00    -0.218 NA
ATOM      8  C   UNL     1     -10.879  16.548  68.287  0.00  0.00    +0.221 A 
ATOM      9  C   UNL     1     -12.393  14.087  70.215  0.00  0.00    +0.024 A 
ATOM     10  N   UNL     1     -10.811  17.069  69.521  0.00  0.00    -0.218 NA
ATOM     11  C   UNL     1     -12.388  13.986  71.599  0.00  0.00    +0.039 A 
BRANCH   3  13
ATOM     12  C   UNL     1     -12.444  15.206  74.255  0.00  0.00    +0.252 C 
ATOM     13  O   UNL     1     -12.334  15.177  73.682  0.00  0.00    -0.471 OA
ENDBRANCH   3  13
ENDBRANCH   1   8
BRANCH   1  14
ATOM     14  C   UNL     1      -9.093  15.952  66.206  0.00  0.00    +0.145 C 
BRANCH  14  15
ATOM     15  C   UNL     1      -9.985  14.935  65.582  0.00  0.00    +0.072 A 
ATOM     16  C   UNL     1      -9.860  13.617  65.997  0.00  0.00    +0.026 A 
ATOM     17  C   UNL     1      -8.762  13.150  66.875  0.00  0.00    +0.035 C 
ATOM     18  C   UNL     1     -10.753  12.669  65.538  0.00  0.00    +0.133 A 
ATOM     19  C   UNL     1     -11.676  13.082  64.605  0.00  0.00    +0.031 A 
ATOM     20  C   UNL     1     -12.437  12.057  63.860  0.00  0.00    +0.036 C 
ATOM     21  C   UNL     1     -11.905  14.438  64.409  0.00  0.00    +0.097 A 
ATOM     22  N   UNL     1     -11.015  15.343  64.834  0.00  0.00    -0.248 NA
BRANCH  18  23
ATOM     23  O   UNL     1     -10.982  11.496  66.261  0.00  0.00    -0.472 OA
ATOM     24  C   UNL     1     -11.687  11.579  67.475  0.00  0.00    +0.252 C 
ENDBRANCH  18  23
ENDBRANCH  14  15
ENDBRANCH   1  14
TORSDOF 5
ENDMDL
MODEL 3
REMARK VINA RESULT:      -6.6      3.149      5.464
REMARK  Name = 
REMARK  5 active torsions:
REMARK  status: ('A' for Active; 'I' for Inactive)
REMARK    1  A    between atoms: O_2  and  C_3
REMARK    2  A    between atoms: C_8  and  S_9
REMARK    3  A    between atoms: S_9  and  C_11
REMARK    4  A    between atoms: C_11  and  C_12
REMARK    5  A    between atoms: C_17  and  O_18
REMARK                            x       y       z     vdW  Elec       q    Type
REMARK                         _______ _______ _______ _____ _____    ______ ____
ROOT
ATOM      1  S   UNL     1     -10.460  17.588  66.878  0.00  0.00    +0.107 S 
ATOM      2  O   UNL     1      -9.497  18.609  67.552  0.00  0.00    -0.248 OA
ENDROOT
BRANCH   1   8
ATOM      3  C   UNL     1     -12.853  14.096  71.446  0.00  0.00    +0.140 A 
ATOM      4  C   UNL     1     -12.473  13.997  70.126  0.00  0.00    +0.058 A 
ATOM      5  C   UNL     1     -11.778  15.044  69.584  0.00  0.00    +0.104 A 
ATOM      6  C   UNL     1     -11.227  15.991  70.422  0.00  0.00    +0.101 A 
ATOM      7  N   UNL     1     -10.575  16.844  69.597  0.00  0.00    -0.218 NA
ATOM      8  C   UNL     1     -11.029  16.679  68.338  0.00  0.00    +0.221 A 
ATOM      9  C   UNL     1     -11.753  16.166  71.697  0.00  0.00    +0.024 A 
ATOM     10  N   UNL     1     -11.607  15.469  68.325  0.00  0.00    -0.218 NA
ATOM     11  C   UNL     1     -12.567  15.181  72.237  0.00  0.00    +0.039 A 
BRANCH   3  13
ATOM     12  C   UNL     1     -13.620  12.457  72.255  0.00  0.00    +0.252 C 
ATOM     13  O   UNL     1     -13.397  12.940  72.015  0.00  0.00    -0.471 OA
ENDBRANCH   3  13
ENDBRANCH   1   8
BRANCH   1  14
ATOM     14  C   UNL     1      -9.237  16.392  66.197  0.00  0.00    +0.145 C 
BRANCH  14  15
ATOM     15  C   UNL     1     -10.037  15.319  65.542  0.00  0.00    +0.072 A 
ATOM     16  C   UNL     1      -9.811  14.007  65.934  0.00  0.00    +0.026 A 
ATOM     17  C   UNL     1      -8.690  13.613  66.818  0.00  0.00    +0.035 C 
ATOM     18  C   UNL     1     -10.619  13.000  65.445  0.00  0.00    +0.133 A 
ATOM     19  C   UNL     1     -11.561  13.356  64.507  0.00  0.00    +0.031 A 
ATOM     20  C   UNL     1     -12.228  12.288  63.733  0.00  0.00    +0.036 C 
ATOM     21  C   UNL     1     -11.896  14.693  64.333  0.00  0.00    +0.097 A 
ATOM     22  N   UNL     1     -11.087  15.657  64.788  0.00  0.00    -0.248 NA
BRANCH  18  23
ATOM     23  O   UNL     1     -10.762  11.798  66.142  0.00  0.00    -0.472 OA
ATOM     24  C   UNL     1     -11.559  11.782  67.301  0.00  0.00    +0.252 C 
ENDBRANCH  18  23
ENDBRANCH  14  15
ENDBRANCH   1  14
TORSDOF 5
ENDMDL
MODEL 4
REMARK VINA RESULT:      -6.5      1.352      1.527
REMARK  Name = 
REMARK  5 active torsions:
REMARK  status: ('A' for Active; 'I' for Inactive)
REMARK    1  A    between atoms: O_2  and  C_3
REMARK    2  A    between atoms: C_8  and  S_9
REMARK    3  A    between atoms: S_9  and  C_11
REMARK    4  A    between atoms: C_11  and  C_12
REMARK    5  A    between atoms: C_17  and  O_18
REMARK                            x       y       z     vdW  Elec       q    Type
REMARK                         _______ _______ _______ _____ _____    ______ ____
ROOT
ATOM      1  S   UNL     1      -9.732  16.049  66.597  0.00  0.00    +0.107 S 
ATOM      2  O   UNL     1     -10.785  15.537  65.570  0.00  0.00    -0.248 OA
ENDROOT
BRANCH   1   8
ATOM      3  C   UNL     1     -12.169  15.136  72.254  0.00  0.00    +0.140 A 
ATOM      4  C   UNL     1     -11.565  16.124  71.508  0.00  0.00    +0.058 A 
ATOM      5  C   UNL     1     -11.378  15.888  70.173  0.00  0.00    +0.104 A 
ATOM      6  C   UNL     1     -12.051  14.843  69.574  0.00  0.00    +0.101 A 
ATOM      7  N   UNL     1     -11.698  14.909  68.269  0.00  0.00    -0.218 NA
ATOM      8  C   UNL     1     -10.586  15.662  68.147  0.00  0.00    +0.221 A 
ATOM      9  C   UNL     1     -12.504  13.784  70.352  0.00  0.00    +0.024 A 
ATOM     10  N   UNL     1     -10.525  16.391  69.271  0.00  0.00    -0.218 NA
ATOM     11  C   UNL     1     -12.591  13.940  71.728  0.00  0.00    +0.039 A 
BRANCH   3  13
ATOM     12  C   UNL     1     -12.655  15.625  74.112  0.00  0.00    +0.252 C 
ATOM     13  O   UNL     1     -12.509  15.480  73.566  0.00  0.00    -0.471 OA
ENDBRANCH   3  13
ENDBRANCH   1   8
BRANCH   1  14
ATOM     14  C   UNL     1     -10.034  17.862  66.493  0.00  0.00    +0.145 C 
BRANCH  14  15
ATOM     15  C   UNL     1      -8.710  18.481  66.209  0.00  0.00    +0.072 A 
ATOM     16  C   UNL     1      -8.451  19.737  66.741  0.00  0.00    +0.026 A 
ATOM     17  C   UNL     1      -9.489  20.560  67.403  0.00  0.00    +0.035 C 
ATOM     18  C   UNL     1      -7.192  20.287  66.609  0.00  0.00    +0.133 A 
ATOM     19  C   UNL     1      -6.277  19.581  65.861  0.00  0.00    +0.031 A 
ATOM     20  C   UNL     1      -5.037  20.262  65.433  0.00  0.00    +0.036 C 
ATOM     21  C   UNL     1      -6.511  18.246  65.560  0.00  0.00    +0.097 A 
ATOM     22  N   UNL     1      -7.744  17.735  65.666  0.00  0.00    -0.248 NA
BRANCH  18  23
ATOM     23  O   UNL     1      -6.744  21.265  67.499  0.00  0.00    -0.472 OA
ATOM     24  C   UNL     1      -6.020  20.862  68.637  0.00  0.00    +0.252 C 
ENDBRANCH  18  23
ENDBRANCH  14  15
ENDBRANCH   1  14
TORSDOF 5
ENDMDL
MODEL 5
REMARK VINA RESULT:      -6.5      3.390      5.126
REMARK  Name = 
REMARK  5 active torsions:
REMARK  status: ('A' for Active; 'I' for Inactive)
REMARK    1  A    between atoms: O_2  and  C_3
REMARK    2  A    between atoms: C_8  and  S_9
REMARK    3  A    between atoms: S_9  and  C_11
REMARK    4  A    between atoms: C_11  and  C_12
REMARK    5  A    between atoms: C_17  and  O_18
REMARK                            x       y       z     vdW  Elec       q    Type
REMARK                         _______ _______ _______ _____ _____    ______ ____
ROOT
ATOM      1  S   UNL     1     -11.054  12.586  66.671  0.00  0.00    +0.107 S 
ATOM      2  O   UNL     1     -12.113  11.880  65.774  0.00  0.00    -0.248 OA
ENDROOT
BRANCH   1   8
ATOM      3  C   UNL     1     -11.479   8.939  71.700  0.00  0.00    +0.140 A 
ATOM      4  C   UNL     1     -10.575   9.295  70.723  0.00  0.00    +0.058 A 
ATOM      5  C   UNL     1     -10.902  10.343  69.907  0.00  0.00    +0.104 A 
ATOM      6  C   UNL     1     -11.938  11.179  70.268  0.00  0.00    +0.101 A 
ATOM      7  N   UNL     1     -11.971  12.124  69.298  0.00  0.00    -0.218 NA
ATOM      8  C   UNL     1     -11.295  11.679  68.220  0.00  0.00    +0.221 A 
ATOM      9  C   UNL     1     -12.920  10.718  71.136  0.00  0.00    +0.024 A 
ATOM     10  N   UNL     1     -10.505  10.696  68.677  0.00  0.00    -0.218 NA
ATOM     11  C   UNL     1     -12.677   9.581  71.895  0.00  0.00    +0.039 A 
BRANCH   3  13
ATOM     12  C   UNL     1     -10.855   7.596  73.018  0.00  0.00    +0.252 C 
ATOM     13  O   UNL     1     -11.037   7.990  72.628  0.00  0.00    -0.471 OA
ENDBRANCH   3  13
ENDBRANCH   1   8
BRANCH   1  14
ATOM     14  C   UNL     1     -11.949  14.148  67.058  0.00  0.00    +0.145 C 
BRANCH  14  15
ATOM     15  C   UNL     1     -10.897  15.148  67.395  0.00  0.00    +0.072 A 
ATOM     16  C   UNL     1     -10.477  16.013  66.395  0.00  0.00    +0.026 A 
ATOM     17  C   UNL     1     -10.878  15.860  64.977  0.00  0.00    +0.035 C 
ATOM     18  C   UNL     1      -9.601  17.035  66.699  0.00  0.00    +0.133 A 
ATOM     19  C   UNL     1      -9.116  17.078  67.986  0.00  0.00    +0.031 A 
ATOM     20  C   UNL     1      -7.955  17.946  68.277  0.00  0.00    +0.036 C 
ATOM     21  C   UNL     1      -9.741  16.347  68.988  0.00  0.00    +0.097 A 
ATOM     22  N   UNL     1     -10.566  15.340  68.675  0.00  0.00    -0.248 NA
BRANCH  18  23
ATOM     23  O   UNL     1      -9.532  18.179  65.900  0.00  0.00    -0.472 OA
ATOM     24  C   UNL     1     -10.413  19.243  66.167  0.00  0.00    +0.252 C 
ENDBRANCH  18  23
ENDBRANCH  14  15
ENDBRANCH   1  14
TORSDOF 5
ENDMDL
MODEL 6
REMARK VINA RESULT:      -6.3      2.757      8.578
REMARK  Name = 
REMARK  5 active torsions:
REMARK  status: ('A' for Active; 'I' for Inactive)
REMARK    1  A    between atoms: O_2  and  C_3
REMARK    2  A    between atoms: C_8  and  S_9
REMARK    3  A    between atoms: S_9  and  C_11
REMARK    4  A    between atoms: C_11  and  C_12
REMARK    5  A    between atoms: C_17  and  O_18
REMARK                            x       y       z     vdW  Elec       q    Type
REMARK                         _______ _______ _______ _____ _____    ______ ____
ROOT
ATOM      1  S   UNL     1     -11.243  15.266  70.257  0.00  0.00    +0.107 S 
ATOM      2  O   UNL     1     -12.608  15.931  70.602  0.00  0.00    -0.248 OA
ENDROOT
BRANCH   1   8
ATOM      3  C   UNL     1      -8.251  19.347  66.627  0.00  0.00    +0.140 A 
ATOM      4  C   UNL     1      -8.101  18.077  67.141  0.00  0.00    +0.058 A 
ATOM      5  C   UNL     1      -9.182  17.509  67.757  0.00  0.00    +0.104 A 
ATOM      6  C   UNL     1     -10.430  18.070  67.579  0.00  0.00    +0.101 A 
ATOM      7  N   UNL     1     -11.273  17.260  68.261  0.00  0.00    -0.218 NA
ATOM      8  C   UNL     1     -10.563  16.507  69.126  0.00  0.00    +0.221 A 
ATOM      9  C   UNL     1     -10.533  19.407  67.215  0.00  0.00    +0.024 A 
ATOM     10  N   UNL     1      -9.302  16.537  68.670  0.00  0.00    -0.218 NA
ATOM     11  C   UNL     1      -9.421  20.060  66.699  0.00  0.00    +0.039 A 
BRANCH   3  13
ATOM     12  C   UNL     1      -6.751  20.023  65.522  0.00  0.00    +0.252 C 
ATOM     13  O   UNL     1      -7.190  19.822  65.848  0.00  0.00    -0.471 OA
ENDBRANCH   3  13
ENDBRANCH   1   8
BRANCH   1  14
ATOM     14  C   UNL     1     -11.801  13.989  69.053  0.00  0.00    +0.145 C 
BRANCH  14  15
ATOM     15  C   UNL     1     -12.219  12.815  69.868  0.00  0.00    +0.072 A 
ATOM     16  C   UNL     1     -11.805  11.556  69.456  0.00  0.00    +0.026 A 
ATOM     17  C   UNL     1     -11.142  11.313  68.153  0.00  0.00    +0.035 C 
ATOM     18  C   UNL     1     -12.062  10.458  70.252  0.00  0.00    +0.133 A 
ATOM     19  C   UNL     1     -12.810  10.672  71.387  0.00  0.00    +0.031 A 
ATOM     20  C   UNL     1     -13.371   9.502  72.096  0.00  0.00    +0.036 C 
ATOM     21  C   UNL     1     -12.991  11.964  71.866  0.00  0.00    +0.097 A 
ATOM     22  N   UNL     1     -12.764  13.017  71.071  0.00  0.00    -0.248 NA
BRANCH  18  23
ATOM     23  O   UNL     1     -11.281   9.304  70.150  0.00  0.00    -0.472 OA
ATOM     24  C   UNL     1     -10.076   9.239  70.873  0.00  0.00    +0.252 C 
ENDBRANCH  18  23
ENDBRANCH  14  15
ENDBRANCH   1  14
TORSDOF 5
ENDMDL
MODEL 7
REMARK VINA RESULT:      -6.2      4.101      8.089
REMARK  Name = 
REMARK  5 active torsions:
REMARK  status: ('A' for Active; 'I' for Inactive)
REMARK    1  A    between atoms: O_2  and  C_3
REMARK    2  A    between atoms: C_8  and  S_9
REMARK    3  A    between atoms: S_9  and  C_11
REMARK    4  A    between atoms: C_11  and  C_12
REMARK    5  A    between atoms: C_17  and  O_18
REMARK                            x       y       z     vdW  Elec       q    Type
REMARK                         _______ _______ _______ _____ _____    ______ ____
ROOT
ATOM      1  S   UNL     1     -11.918  14.115  65.159  0.00  0.00    +0.107 S 
ATOM      2  O   UNL     1     -12.601  14.738  63.906  0.00  0.00    -0.248 OA
ENDROOT
BRANCH   1   8
ATOM      3  C   UNL     1      -8.719  18.692  67.914  0.00  0.00    +0.140 A 
ATOM      4  C   UNL     1      -8.700  17.322  67.775  0.00  0.00    +0.058 A 
ATOM      5  C   UNL     1      -9.546  16.764  66.855  0.00  0.00    +0.104 A 
ATOM      6  C   UNL     1     -10.142  17.575  65.911  0.00  0.00    +0.101 A 
ATOM      7  N   UNL     1     -10.860  16.730  65.135  0.00  0.00    -0.218 NA
ATOM      8  C   UNL     1     -11.029  15.562  65.788  0.00  0.00    +0.221 A 
ATOM      9  C   UNL     1     -10.284  18.934  66.168  0.00  0.00    +0.024 A 
ATOM     10  N   UNL     1     -10.074  15.540  66.730  0.00  0.00    -0.218 NA
ATOM     11  C   UNL     1      -9.533  19.517  67.179  0.00  0.00    +0.039 A 
BRANCH   3  13
ATOM     12  C   UNL     1      -7.299  19.466  69.061  0.00  0.00    +0.252 C 
ATOM     13  O   UNL     1      -7.719  19.240  68.725  0.00  0.00    -0.471 OA
ENDBRANCH   3  13
ENDBRANCH   1   8
BRANCH   1  14
ATOM     14  C   UNL     1     -10.538  13.201  64.353  0.00  0.00    +0.145 C 
BRANCH  14  15
ATOM     15  C   UNL     1     -10.478  11.874  65.028  0.00  0.00    +0.072 A 
ATOM     16  C   UNL     1      -9.872  10.826  64.349  0.00  0.00    +0.026 A 
ATOM     17  C   UNL     1      -9.465  10.915  62.928  0.00  0.00    +0.035 C 
ATOM     18  C   UNL     1      -9.683   9.617  64.990  0.00  0.00    +0.133 A 
ATOM     19  C   UNL     1     -10.201   9.496  66.259  0.00  0.00    +0.031 A 
ATOM     20  C   UNL     1     -10.300   8.148  66.857  0.00  0.00    +0.036 C 
ATOM     21  C   UNL     1     -10.578  10.631  66.966  0.00  0.00    +0.097 A 
ATOM     22  N   UNL     1     -10.786  11.788  66.325  0.00  0.00    -0.248 NA
BRANCH  18  23
ATOM     23  O   UNL     1      -8.689   8.733  64.565  0.00  0.00    -0.472 OA
ATOM     24  C   UNL     1      -7.370   8.937  65.007  0.00  0.00    +0.252 C 
ENDBRANCH  18  23
ENDBRANCH  14  15
ENDBRANCH   1  14
TORSDOF 5
ENDMDL
MODEL 8
REMARK VINA RESULT:      -6.2      2.621      7.807
REMARK  Name = 
REMARK  5 active torsions:
REMARK  status: ('A' for Active; 'I' for Inactive)
REMARK    1  A    between atoms: O_2  and  C_3
REMARK    2  A    between atoms: C_8  and  S_9
REMARK    3  A    between atoms: S_9  and  C_11
REMARK    4  A    between atoms: C_11  and  C_12
REMARK    5  A    between atoms: C_17  and  O_18
REMARK                            x       y       z     vdW  Elec       q    Type
REMARK                         _______ _______ _______ _____ _____    ______ ____
ROOT
ATOM      1  S   UNL     1     -10.982  15.216  70.421  0.00  0.00    +0.107 S 
ATOM      2  O   UNL     1     -11.708  16.148  71.435  0.00  0.00    -0.248 OA
ENDROOT
BRANCH   1   8
ATOM      3  C   UNL     1      -8.346  19.283  66.511  0.00  0.00    +0.140 A 
ATOM      4  C   UNL     1      -8.117  18.041  67.060  0.00  0.00    +0.058 A 
ATOM      5  C   UNL     1      -9.142  17.450  67.748  0.00  0.00    +0.104 A 
ATOM      6  C   UNL     1     -10.420  17.952  67.611  0.00  0.00    +0.101 A 
ATOM      7  N   UNL     1     -11.193  17.132  68.362  0.00  0.00    -0.218 NA
ATOM      8  C   UNL     1     -10.411  16.442  69.216  0.00  0.00    +0.221 A 
ATOM      9  C   UNL     1     -10.598  19.269  67.207  0.00  0.00    +0.024 A 
ATOM     10  N   UNL     1      -9.175  16.508  68.699  0.00  0.00    -0.218 NA
ATOM     11  C   UNL     1      -9.542  19.948  66.615  0.00  0.00    +0.039 A 
BRANCH   3  13
ATOM     12  C   UNL     1      -6.929  19.975  65.309  0.00  0.00    +0.252 C 
ATOM     13  O   UNL     1      -7.346  19.773  65.665  0.00  0.00    -0.471 OA
ENDBRANCH   3  13
ENDBRANCH   1   8
BRANCH   1  14
ATOM     14  C   UNL     1     -12.432  14.520  69.526  0.00  0.00    +0.145 C 
BRANCH  14  15
ATOM     15  C   UNL     1     -12.023  13.158  69.083  0.00  0.00    +0.072 A 
ATOM     16  C   UNL     1     -11.696  12.978  67.747  0.00  0.00    +0.026 A 
ATOM     17  C   UNL     1     -11.921  14.019  66.716  0.00  0.00    +0.035 C 
ATOM     18  C   UNL     1     -11.190  11.765  67.324  0.00  0.00    +0.133 A 
ATOM     19  C   UNL     1     -11.126  10.757  68.259  0.00  0.00    +0.031 A 
ATOM     20  C   UNL     1     -10.892   9.373  67.792  0.00  0.00    +0.036 C 
ATOM     21  C   UNL     1     -11.240  11.055  69.611  0.00  0.00    +0.097 A 
ATOM     22  N   UNL     1     -11.759  12.225  70.003  0.00  0.00    -0.248 NA
BRANCH  18  23
ATOM     23  O   UNL     1     -10.414  11.680  66.166  0.00  0.00    -0.472 OA
ATOM     24  C   UNL     1      -9.033  11.932  66.259  0.00  0.00    +0.252 C 
ENDBRANCH  18  23
ENDBRANCH  14  15
ENDBRANCH   1  14
TORSDOF 5
ENDMDL
MODEL 9
REMARK VINA RESULT:      -6.1      3.818      5.292
REMARK  Name = 
REMARK  5 active torsions:
REMARK  status: ('A' for Active; 'I' for Inactive)
REMARK    1  A    between atoms: O_2  and  C_3
REMARK    2  A    between atoms: C_8  and  S_9
REMARK    3  A    between atoms: S_9  and  C_11
REMARK    4  A    between atoms: C_11  and  C_12
REMARK    5  A    between atoms: C_17  and  O_18
REMARK                            x       y       z     vdW  Elec       q    Type
REMARK                         _______ _______ _______ _____ _____    ______ ____
ROOT
ATOM      1  S   UNL     1     -11.033  12.472  67.623  0.00  0.00    +0.107 S 
ATOM      2  O   UNL     1     -12.005  11.825  66.593  0.00  0.00    -0.248 OA
ENDROOT
BRANCH   1   8
ATOM      3  C   UNL     1     -11.382   8.267  72.203  0.00  0.00    +0.140 A 
ATOM      4  C   UNL     1     -10.448   8.884  71.400  0.00  0.00    +0.058 A 
ATOM      5  C   UNL     1     -10.863   9.943  70.639  0.00  0.00    +0.104 A 
ATOM      6  C   UNL     1     -12.076  10.537  70.919  0.00  0.00    +0.101 A 
ATOM      7  N   UNL     1     -12.167  11.564  70.041  0.00  0.00    -0.218 NA
ATOM      8  C   UNL     1     -11.288  11.369  69.037  0.00  0.00    +0.221 A 
ATOM      9  C   UNL     1     -13.053   9.815  71.594  0.00  0.00    +0.024 A 
ATOM     10  N   UNL     1     -10.390  10.496  69.515  0.00  0.00    -0.218 NA
ATOM     11  C   UNL     1     -12.695   8.662  72.278  0.00  0.00    +0.039 A 
BRANCH   3  13
ATOM     12  C   UNL     1     -10.679   6.913  73.468  0.00  0.00    +0.252 C 
ATOM     13  O   UNL     1     -10.887   7.313  73.098  0.00  0.00    -0.471 OA
ENDBRANCH   3  13
ENDBRANCH   1   8
BRANCH   1  14
ATOM     14  C   UNL     1     -12.037  13.923  68.147  0.00  0.00    +0.145 C 
BRANCH  14  15
ATOM     15  C   UNL     1     -11.334  15.122  67.612  0.00  0.00    +0.072 A 
ATOM     16  C   UNL     1     -10.713  15.970  68.518  0.00  0.00    +0.026 A 
ATOM     17  C   UNL     1     -10.883  15.847  69.985  0.00  0.00    +0.035 C 
ATOM     18  C   UNL     1      -9.944  17.019  68.054  0.00  0.00    +0.133 A 
ATOM     19  C   UNL     1      -9.914  17.217  66.693  0.00  0.00    +0.031 A 
ATOM     20  C   UNL     1      -9.371  18.490  66.174  0.00  0.00    +0.036 C 
ATOM     21  C   UNL     1     -10.351  16.214  65.836  0.00  0.00    +0.097 A 
ATOM     22  N   UNL     1     -11.121  15.220  66.297  0.00  0.00    -0.248 NA
BRANCH  18  23
ATOM     23  O   UNL     1      -8.942  17.576  68.852  0.00  0.00    -0.472 OA
ATOM     24  C   UNL     1      -7.654  17.011  68.811  0.00  0.00    +0.252 C 
ENDBRANCH  18  23
ENDBRANCH  14  15
ENDBRANCH   1  14
TORSDOF 5
ENDMDL
