MODEL 1
REMARK VINA RESULT:      -7.6      0.000      0.000
REMARK  Name = 
REMARK  7 active torsions:
REMARK  status: ('A' for Active; 'I' for Inactive)
REMARK    1  A    between atoms: O_2  and  C_3
REMARK    2  A    between atoms: N_8  and  C_10
REMARK    3  A    between atoms: C_10  and  C_11
REMARK    4  A    between atoms: C_11  and  C_12
REMARK    5  A    between atoms: C_12  and  N_13
REMARK    6  A    between atoms: C_14  and  C_16
REMARK    7  A    between atoms: C_26  and  O_27
REMARK                            x       y       z     vdW  Elec       q    Type
REMARK                         _______ _______ _______ _____ _____    ______ ____
ROOT
ATOM      1  C   UNL     1      -8.890  16.348  66.253  0.00  0.00    +0.174 A 
ATOM      2  C   UNL     1     -10.136  16.783  65.882  0.00  0.00    +0.173 A 
ATOM      3  C   UNL     1     -11.147  15.835  65.884  0.00  0.00    +0.044 A 
ATOM      4  C   UNL     1     -10.894  14.557  66.299  0.00  0.00    +0.056 A 
ATOM      5  C   UNL     1      -9.687  14.247  66.912  0.00  0.00    +0.090 A 
ATOM      6  N   UNL     1      -9.649  13.095  67.592  0.00  0.00    -0.213 NA
ATOM      7  C   UNL     1     -10.659  12.222  67.568  0.00  0.00    +0.221 A 
ATOM      8  N   UNL     1     -11.666  12.412  66.681  0.00  0.00    -0.195 NA
ATOM      9  N   UNL     1     -10.647  11.044  68.384  0.00  0.00    -0.276 N 
ATOM     10  C   UNL     1      -9.754   9.984  67.957  0.00  0.00    +0.115 C 
ATOM     11  C   UNL     1     -11.741  13.519  65.939  0.00  0.00    +0.174 A 
ATOM     12  N   UNL     1     -12.718  13.693  64.938  0.00  0.00    -0.107 NA
ATOM     13  C   UNL     1      -8.657  15.166  66.934  0.00  0.00    +0.059 A 
ENDROOT
BRANCH   1  15
ATOM     14  C   UNL     1      -7.380  17.413  65.919  0.00  0.00    +0.253 C 
ATOM     15  O   UNL     1      -7.792  17.128  65.895  0.00  0.00    -0.468 OA
ENDBRANCH   1  15
BRANCH   2  16
ATOM     16  O   UNL     1     -10.386  18.131  65.750  0.00  0.00    -0.468 OA
ATOM     17  C   UNL     1     -10.594  18.977  66.878  0.00  0.00    +0.253 C 
ENDBRANCH   2  16
BRANCH   9  18
ATOM     18  C   UNL     1     -11.894  10.720  69.046  0.00  0.00    +0.095 C 
BRANCH  18  19
ATOM     19  C   UNL     1     -11.733  10.805  70.541  0.00  0.00    +0.045 C 
BRANCH  19  20
ATOM     20  C   UNL     1     -12.883  11.500  71.222  0.00  0.00    +0.117 C 
BRANCH  20  21
ATOM     21  N   UNL     1     -12.665  12.946  71.189  0.00  0.00    -0.203 NA
ATOM     22  C   UNL     1     -13.366  13.829  72.079  0.00  0.00    +0.269 C 
ATOM     23  O   UNL     1     -14.367  13.348  72.696  0.00  0.00    -0.271 OA
BRANCH  22  24
ATOM     24  C   UNL     1     -13.992  15.078  71.211  0.00  0.00    +0.193 C 
ATOM     25  O   UNL     1     -14.181  15.972  72.448  0.00  0.00    -0.347 OA
ATOM     26  C   UNL     1     -13.107  15.631  73.207  0.00  0.00    +0.143 C 
ATOM     27  C   UNL     1     -11.954  15.872  72.292  0.00  0.00    +0.035 C 
ATOM     28  C   UNL     1     -12.480  15.723  70.913  0.00  0.00    +0.042 C 
ENDBRANCH  22  24
ENDBRANCH  20  21
ENDBRANCH  19  20
ENDBRANCH  18  19
ENDBRANCH   9  18
TORSDOF 7
ENDMDL
MODEL 2
REMARK VINA RESULT:      -7.2      2.542      6.745
REMARK  Name = 
REMARK  7 active torsions:
REMARK  status: ('A' for Active; 'I' for Inactive)
REMARK    1  A    between atoms: O_2  and  C_3
REMARK    2  A    between atoms: N_8  and  C_10
REMARK    3  A    between atoms: C_10  and  C_11
REMARK    4  A    between atoms: C_11  and  C_12
REMARK    5  A    between atoms: C_12  and  N_13
REMARK    6  A    between atoms: C_14  and  C_16
REMARK    7  A    between atoms: C_26  and  O_27
REMARK                            x       y       z     vdW  Elec       q    Type
REMARK                         _______ _______ _______ _____ _____    ______ ____
ROOT
ATOM      1  C   UNL     1     -12.699   9.357  71.669  0.00  0.00    +0.174 A 
ATOM      2  C   UNL     1     -11.466   8.777  71.822  0.00  0.00    +0.173 A 
ATOM      3  C   UNL     1     -10.476   9.190  70.944  0.00  0.00    +0.044 A 
ATOM      4  C   UNL     1     -10.733  10.171  70.028  0.00  0.00    +0.056 A 
ATOM      5  C   UNL     1     -11.910  10.904  70.097  0.00  0.00    +0.090 A 
ATOM      6  N   UNL     1     -11.935  12.050  69.407  0.00  0.00    -0.213 NA
ATOM      7  C   UNL     1     -10.946  12.405  68.584  0.00  0.00    +0.221 A 
ATOM      8  N   UNL     1      -9.985  11.497  68.287  0.00  0.00    -0.195 NA
ATOM      9  N   UNL     1     -10.938  13.683  67.934  0.00  0.00    -0.276 N 
ATOM     10  C   UNL     1     -11.874  13.844  66.839  0.00  0.00    +0.115 C 
ATOM     11  C   UNL     1      -9.928  10.316  68.907  0.00  0.00    +0.174 A 
ATOM     12  N   UNL     1      -9.002   9.316  68.543  0.00  0.00    -0.107 NA
ATOM     13  C   UNL     1     -12.918  10.526  70.961  0.00  0.00    +0.059 A 
ENDROOT
BRANCH   1  15
ATOM     14  C   UNL     1     -14.269   8.579  72.342  0.00  0.00    +0.253 C 
ATOM     15  O   UNL     1     -13.799   8.713  72.234  0.00  0.00    -0.468 OA
ENDBRANCH   1  15
BRANCH   2  16
ATOM     16  O   UNL     1     -11.196   8.011  72.934  0.00  0.00    -0.468 OA
ATOM     17  C   UNL     1     -10.917   6.616  72.842  0.00  0.00    +0.253 C 
ENDBRANCH   2  16
BRANCH   9  18
ATOM     18  C   UNL     1      -9.664  14.371  67.908  0.00  0.00    +0.095 C 
BRANCH  18  19
ATOM     19  C   UNL     1      -9.353  14.956  69.260  0.00  0.00    +0.045 C 
BRANCH  19  20
ATOM     20  C   UNL     1     -10.379  15.957  69.723  0.00  0.00    +0.117 C 
BRANCH  20  21
ATOM     21  N   UNL     1     -11.023  15.463  70.941  0.00  0.00    -0.203 NA
ATOM     22  C   UNL     1     -12.454  15.414  71.062  0.00  0.00    +0.269 C 
ATOM     23  O   UNL     1     -13.127  16.058  70.199  0.00  0.00    -0.271 OA
BRANCH  22  24
ATOM     24  C   UNL     1     -12.893  16.086  72.498  0.00  0.00    +0.193 C 
ATOM     25  O   UNL     1     -14.380  15.742  72.318  0.00  0.00    -0.347 OA
ATOM     26  C   UNL     1     -14.315  14.548  71.673  0.00  0.00    +0.143 C 
ATOM     27  C   UNL     1     -13.470  13.718  72.580  0.00  0.00    +0.035 C 
ATOM     28  C   UNL     1     -12.612  14.666  73.330  0.00  0.00    +0.042 C 
ENDBRANCH  22  24
ENDBRANCH  20  21
ENDBRANCH  19  20
ENDBRANCH  18  19
ENDBRANCH   9  18
TORSDOF 7
ENDMDL
MODEL 3
REMARK VINA RESULT:      -7.0      2.776      8.064
REMARK  Name = 
REMARK  7 active torsions:
REMARK  status: ('A' for Active; 'I' for Inactive)
REMARK    1  A    between atoms: O_2  and  C_3
REMARK    2  A    between atoms: N_8  and  C_10
REMARK    3  A    between atoms: C_10  and  C_11
REMARK    4  A    between atoms: C_11  and  C_12
REMARK    5  A    between atoms: C_12  and  N_13
REMARK    6  A    between atoms: C_14  and  C_16
REMARK    7  A    between atoms: C_26  and  O_27
REMARK                            x       y       z     vdW  Elec       q    Type
REMARK                         _______ _______ _______ _____ _____    ______ ____
ROOT
ATOM      1  C   UNL     1     -13.414   8.325  71.679  0.00  0.00    +0.174 A 
ATOM      2  C   UNL     1     -12.249   8.095  70.994  0.00  0.00    +0.173 A 
ATOM      3  C   UNL     1     -11.632   9.204  70.436  0.00  0.00    +0.044 A 
ATOM      4  C   UNL     1     -12.151  10.454  70.632  0.00  0.00    +0.056 A 
ATOM      5  C   UNL     1     -13.174  10.651  71.551  0.00  0.00    +0.090 A 
ATOM      6  N   UNL     1     -13.384  11.914  71.938  0.00  0.00    -0.213 NA
ATOM      7  C   UNL     1     -12.751  12.946  71.373  0.00  0.00    +0.221 A 
ATOM      8  N   UNL     1     -12.025  12.731  70.250  0.00  0.00    -0.195 NA
ATOM      9  N   UNL     1     -12.909  14.281  71.870  0.00  0.00    -0.276 N 
ATOM     10  C   UNL     1     -14.173  14.925  71.572  0.00  0.00    +0.115 C 
ATOM     11  C   UNL     1     -11.812  11.498  69.784  0.00  0.00    +0.174 A 
ATOM     12  N   UNL     1     -11.148  11.256  68.563  0.00  0.00    -0.107 NA
ATOM     13  C   UNL     1     -13.810   9.572  72.130  0.00  0.00    +0.059 A 
ENDROOT
BRANCH   1  15
ATOM     14  C   UNL     1     -14.660   6.967  72.037  0.00  0.00    +0.253 C 
ATOM     15  O   UNL     1     -14.262   7.242  71.907  0.00  0.00    -0.468 OA
ENDBRANCH   1  15
BRANCH   2  16
ATOM     16  O   UNL     1     -11.632   6.867  71.071  0.00  0.00    -0.468 OA
ATOM     17  C   UNL     1     -11.173   6.175  69.912  0.00  0.00    +0.253 C 
ENDBRANCH   2  16
BRANCH   9  18
ATOM     18  C   UNL     1     -11.697  15.068  71.964  0.00  0.00    +0.095 C 
BRANCH  18  19
ATOM     19  C   UNL     1     -11.752  16.233  71.010  0.00  0.00    +0.045 C 
BRANCH  19  20
ATOM     20  C   UNL     1     -11.097  15.945  69.685  0.00  0.00    +0.117 C 
BRANCH  20  21
ATOM     21  N   UNL     1     -10.588  17.193  69.114  0.00  0.00    -0.203 NA
ATOM     22  C   UNL     1     -10.339  17.324  67.706  0.00  0.00    +0.269 C 
ATOM     23  O   UNL     1     -10.313  16.252  67.024  0.00  0.00    -0.271 OA
BRANCH  22  24
ATOM     24  C   UNL     1      -8.845  17.976  67.485  0.00  0.00    +0.193 C 
ATOM     25  O   UNL     1      -9.145  18.427  66.046  0.00  0.00    -0.347 OA
ATOM     26  C   UNL     1     -10.458  18.767  66.127  0.00  0.00    +0.143 C 
ATOM     27  C   UNL     1     -10.482  19.767  67.234  0.00  0.00    +0.035 C 
ATOM     28  C   UNL     1      -9.320  19.453  68.101  0.00  0.00    +0.042 C 
ENDBRANCH  22  24
ENDBRANCH  20  21
ENDBRANCH  19  20
ENDBRANCH  18  19
ENDBRANCH   9  18
TORSDOF 7
ENDMDL
MODEL 4
REMARK VINA RESULT:      -7.0      2.504      7.317
REMARK  Name = 
REMARK  7 active torsions:
REMARK  status: ('A' for Active; 'I' for Inactive)
REMARK    1  A    between atoms: O_2  and  C_3
REMARK    2  A    between atoms: N_8  and  C_10
REMARK    3  A    between atoms: C_10  and  C_11
REMARK    4  A    between atoms: C_11  and  C_12
REMARK    5  A    between atoms: C_12  and  N_13
REMARK    6  A    between atoms: C_14  and  C_16
REMARK    7  A    between atoms: C_26  and  O_27
REMARK                            x       y       z     vdW  Elec       q    Type
REMARK                         _______ _______ _______ _____ _____    ______ ____
ROOT
ATOM      1  C   UNL     1     -11.624   9.091  71.547  0.00  0.00    +0.174 A 
ATOM      2  C   UNL     1     -12.800   9.734  71.836  0.00  0.00    +0.173 A 
ATOM      3  C   UNL     1     -12.981  10.980  71.256  0.00  0.00    +0.044 A 
ATOM      4  C   UNL     1     -12.044  11.483  70.396  0.00  0.00    +0.056 A 
ATOM      5  C   UNL     1     -11.011  10.677  69.936  0.00  0.00    +0.090 A 
ATOM      6  N   UNL     1     -10.356  11.115  68.855  0.00  0.00    -0.213 NA
ATOM      7  C   UNL     1     -10.580  12.322  68.329  0.00  0.00    +0.221 A 
ATOM      8  N   UNL     1     -11.345  13.203  69.018  0.00  0.00    -0.195 NA
ATOM      9  N   UNL     1      -9.947  12.734  67.111  0.00  0.00    -0.276 N 
ATOM     10  C   UNL     1      -8.539  13.064  67.206  0.00  0.00    +0.115 C 
ATOM     11  C   UNL     1     -11.992  12.844  70.129  0.00  0.00    +0.174 A 
ATOM     12  N   UNL     1     -12.709  13.767  70.918  0.00  0.00    -0.107 NA
ATOM     13  C   UNL     1     -10.801   9.428  70.487  0.00  0.00    +0.059 A 
ENDROOT
BRANCH   1  15
ATOM     14  C   UNL     1     -10.944   7.703  72.614  0.00  0.00    +0.253 C 
ATOM     15  O   UNL     1     -11.221   8.056  72.389  0.00  0.00    -0.468 OA
ENDBRANCH   1  15
BRANCH   2  16
ATOM     16  O   UNL     1     -13.818   9.061  72.475  0.00  0.00    -0.468 OA
ATOM     17  C   UNL     1     -14.642   8.116  71.797  0.00  0.00    +0.253 C 
ENDBRANCH   2  16
BRANCH   9  18
ATOM     18  C   UNL     1     -10.793  13.429  66.163  0.00  0.00    +0.095 C 
BRANCH  18  19
ATOM     19  C   UNL     1     -10.017  14.512  65.460  0.00  0.00    +0.045 C 
BRANCH  19  20
ATOM     20  C   UNL     1     -10.842  15.737  65.166  0.00  0.00    +0.117 C 
BRANCH  20  21
ATOM     21  N   UNL     1     -10.140  16.923  65.656  0.00  0.00    -0.203 NA
ATOM     22  C   UNL     1     -10.181  17.296  67.043  0.00  0.00    +0.269 C 
ATOM     23  O   UNL     1     -11.057  16.728  67.766  0.00  0.00    -0.271 OA
BRANCH  22  24
ATOM     24  C   UNL     1     -10.545  18.897  67.156  0.00  0.00    +0.193 C 
ATOM     25  O   UNL     1      -9.878  19.053  68.532  0.00  0.00    -0.347 OA
ATOM     26  C   UNL     1      -8.824  18.201  68.431  0.00  0.00    +0.143 C 
ATOM     27  C   UNL     1      -8.116  18.682  67.209  0.00  0.00    +0.035 C 
ATOM     28  C   UNL     1      -9.142  19.345  66.368  0.00  0.00    +0.042 C 
ENDBRANCH  22  24
ENDBRANCH  20  21
ENDBRANCH  19  20
ENDBRANCH  18  19
ENDBRANCH   9  18
TORSDOF 7
ENDMDL
MODEL 5
REMARK VINA RESULT:      -6.8      1.726      2.512
REMARK  Name = 
REMARK  7 active torsions:
REMARK  status: ('A' for Active; 'I' for Inactive)
REMARK    1  A    between atoms: O_2  and  C_3
REMARK    2  A    between atoms: N_8  and  C_10
REMARK    3  A    between atoms: C_10  and  C_11
REMARK    4  A    between atoms: C_11  and  C_12
REMARK    5  A    between atoms: C_12  and  N_13
REMARK    6  A    between atoms: C_14  and  C_16
REMARK    7  A    between atoms: C_26  and  O_27
REMARK                            x       y       z     vdW  Elec       q    Type
REMARK                         _______ _______ _______ _____ _____    ______ ____
ROOT
ATOM      1  C   UNL     1      -7.509  17.896  67.000  0.00  0.00    +0.174 A 
ATOM      2  C   UNL     1      -8.615  18.651  66.706  0.00  0.00    +0.173 A 
ATOM      3  C   UNL     1      -9.713  17.970  66.203  0.00  0.00    +0.044 A 
ATOM      4  C   UNL     1      -9.682  16.609  66.079  0.00  0.00    +0.056 A 
ATOM      5  C   UNL     1      -8.642  15.878  66.640  0.00  0.00    +0.090 A 
ATOM      6  N   UNL     1      -8.853  14.565  66.783  0.00  0.00    -0.213 NA
ATOM      7  C   UNL     1      -9.937  13.961  66.288  0.00  0.00    +0.221 A 
ATOM      8  N   UNL     1     -10.747  14.655  65.453  0.00  0.00    -0.195 NA
ATOM      9  N   UNL     1     -10.199  12.575  66.541  0.00  0.00    -0.276 N 
ATOM     10  C   UNL     1      -9.373  11.629  65.818  0.00  0.00    +0.115 C 
ATOM     11  C   UNL     1     -10.566  15.958  65.231  0.00  0.00    +0.174 A 
ATOM     12  N   UNL     1     -11.330  16.677  64.289  0.00  0.00    -0.107 NA
ATOM     13  C   UNL     1      -7.534  16.521  67.154  0.00  0.00    +0.059 A 
ENDROOT
BRANCH   1  15
ATOM     14  C   UNL     1      -5.860  18.739  67.311  0.00  0.00    +0.253 C 
ATOM     15  O   UNL     1      -6.284  18.550  67.121  0.00  0.00    -0.468 OA
ENDBRANCH   1  15
BRANCH   2  16
ATOM     16  O   UNL     1      -8.684  19.965  67.115  0.00  0.00    -0.468 OA
ATOM     17  C   UNL     1      -9.907  20.563  67.538  0.00  0.00    +0.253 C 
ENDBRANCH   2  16
BRANCH   9  18
ATOM     18  C   UNL     1     -11.570  12.240  66.867  0.00  0.00    +0.095 C 
BRANCH  18  19
ATOM     19  C   UNL     1     -11.759  12.189  68.360  0.00  0.00    +0.045 C 
BRANCH  19  20
ATOM     20  C   UNL     1     -11.384  13.474  69.050  0.00  0.00    +0.117 C 
BRANCH  20  21
ATOM     21  N   UNL     1     -12.188  13.627  70.262  0.00  0.00    -0.203 NA
ATOM     22  C   UNL     1     -12.824  14.874  70.585  0.00  0.00    +0.269 C 
ATOM     23  O   UNL     1     -12.444  15.898  69.937  0.00  0.00    -0.271 OA
BRANCH  22  24
ATOM     24  C   UNL     1     -12.500  15.249  72.154  0.00  0.00    +0.193 C 
ATOM     25  O   UNL     1     -13.856  15.942  72.371  0.00  0.00    -0.347 OA
ATOM     26  C   UNL     1     -14.683  15.187  71.602  0.00  0.00    +0.143 C 
ATOM     27  C   UNL     1     -14.467  13.806  72.126  0.00  0.00    +0.035 C 
ATOM     28  C   UNL     1     -13.100  13.790  72.701  0.00  0.00    +0.042 C 
ENDBRANCH  22  24
ENDBRANCH  20  21
ENDBRANCH  19  20
ENDBRANCH  18  19
ENDBRANCH   9  18
TORSDOF 7
ENDMDL
MODEL 6
REMARK VINA RESULT:      -6.8      2.962      7.134
REMARK  Name = 
REMARK  7 active torsions:
REMARK  status: ('A' for Active; 'I' for Inactive)
REMARK    1  A    between atoms: O_2  and  C_3
REMARK    2  A    between atoms: N_8  and  C_10
REMARK    3  A    between atoms: C_10  and  C_11
REMARK    4  A    between atoms: C_11  and  C_12
REMARK    5  A    between atoms: C_12  and  N_13
REMARK    6  A    between atoms: C_14  and  C_16
REMARK    7  A    between atoms: C_26  and  O_27
REMARK                            x       y       z     vdW  Elec       q    Type
REMARK                         _______ _______ _______ _____ _____    ______ ____
ROOT
ATOM      1  C   UNL     1     -11.955   9.918  70.911  0.00  0.00    +0.174 A 
ATOM      2  C   UNL     1     -10.715   9.334  70.871  0.00  0.00    +0.173 A 
ATOM      3  C   UNL     1     -10.030   9.419  69.669  0.00  0.00    +0.044 A 
ATOM      4  C   UNL     1     -10.565  10.110  68.618  0.00  0.00    +0.056 A 
ATOM      5  C   UNL     1     -11.692  10.901  68.801  0.00  0.00    +0.090 A 
ATOM      6  N   UNL     1     -11.944  11.801  67.843  0.00  0.00    -0.213 NA
ATOM      7  C   UNL     1     -11.243  11.846  66.708  0.00  0.00    +0.221 A 
ATOM      8  N   UNL     1     -10.385  10.835  66.430  0.00  0.00    -0.195 NA
ATOM      9  N   UNL     1     -11.456  12.881  65.740  0.00  0.00    -0.276 N 
ATOM     10  C   UNL     1     -12.672  12.778  64.956  0.00  0.00    +0.115 C 
ATOM     11  C   UNL     1     -10.121   9.880  67.324  0.00  0.00    +0.174 A 
ATOM     12  N   UNL     1      -9.313   8.764  67.021  0.00  0.00    -0.107 NA
ATOM     13  C   UNL     1     -12.399  10.847  69.986  0.00  0.00    +0.059 A 
ENDROOT
BRANCH   1  15
ATOM     14  C   UNL     1     -13.233   9.360  72.168  0.00  0.00    +0.253 C 
ATOM     15  O   UNL     1     -12.828   9.530  71.925  0.00  0.00    -0.468 OA
ENDBRANCH   1  15
BRANCH   2  16
ATOM     16  O   UNL     1     -10.116   8.903  72.034  0.00  0.00    -0.468 OA
ATOM     17  C   UNL     1      -8.780   8.408  72.059  0.00  0.00    +0.253 C 
ENDBRANCH   2  16
BRANCH   9  18
ATOM     18  C   UNL     1     -10.262  13.456  65.155  0.00  0.00    +0.095 C 
BRANCH  18  19
ATOM     19  C   UNL     1     -10.379  14.956  65.089  0.00  0.00    +0.045 C 
BRANCH  19  20
ATOM     20  C   UNL     1     -10.627  15.592  66.431  0.00  0.00    +0.117 C 
BRANCH  20  21
ATOM     21  N   UNL     1     -10.064  16.942  66.440  0.00  0.00    -0.203 NA
ATOM     22  C   UNL     1     -10.197  17.800  67.585  0.00  0.00    +0.269 C 
ATOM     23  O   UNL     1     -11.042  17.455  68.468  0.00  0.00    -0.271 OA
BRANCH  22  24
ATOM     24  C   UNL     1     -10.718  19.279  67.087  0.00  0.00    +0.193 C 
ATOM     25  O   UNL     1     -10.196  19.995  68.343  0.00  0.00    -0.347 OA
ATOM     26  C   UNL     1      -9.061  19.297  68.613  0.00  0.00    +0.143 C 
ATOM     27  C   UNL     1      -8.294  19.391  67.336  0.00  0.00    +0.035 C 
ATOM     28  C   UNL     1      -9.299  19.581  66.262  0.00  0.00    +0.042 C 
ENDBRANCH  22  24
ENDBRANCH  20  21
ENDBRANCH  19  20
ENDBRANCH  18  19
ENDBRANCH   9  18
TORSDOF 7
ENDMDL
MODEL 7
REMARK VINA RESULT:      -6.7      2.821      4.280
REMARK  Name = 
REMARK  7 active torsions:
REMARK  status: ('A' for Active; 'I' for Inactive)
REMARK    1  A    between atoms: O_2  and  C_3
REMARK    2  A    between atoms: N_8  and  C_10
REMARK    3  A    between atoms: C_10  and  C_11
REMARK    4  A    between atoms: C_11  and  C_12
REMARK    5  A    between atoms: C_12  and  N_13
REMARK    6  A    between atoms: C_14  and  C_16
REMARK    7  A    between atoms: C_26  and  O_27
REMARK                            x       y       z     vdW  Elec       q    Type
REMARK                         _______ _______ _______ _____ _____    ______ ____
ROOT
ATOM      1  C   UNL     1      -6.212  19.377  66.306  0.00  0.00    +0.174 A 
ATOM      2  C   UNL     1      -6.845  20.195  67.206  0.00  0.00    +0.173 A 
ATOM      3  C   UNL     1      -8.153  19.867  67.526  0.00  0.00    +0.044 A 
ATOM      4  C   UNL     1      -8.730  18.744  67.002  0.00  0.00    +0.056 A 
ATOM      5  C   UNL     1      -7.958  17.816  66.314  0.00  0.00    +0.090 A 
ATOM      6  N   UNL     1      -8.504  16.606  66.142  0.00  0.00    -0.213 NA
ATOM      7  C   UNL     1      -9.768  16.342  66.480  0.00  0.00    +0.221 A 
ATOM      8  N   UNL     1     -10.581  17.369  66.825  0.00  0.00    -0.195 NA
ATOM      9  N   UNL     1     -10.303  15.015  66.387  0.00  0.00    -0.276 N 
ATOM     10  C   UNL     1     -10.588  14.537  65.049  0.00  0.00    +0.115 C 
ATOM     11  C   UNL     1     -10.111  18.610  66.971  0.00  0.00    +0.174 A 
ATOM     12  N   UNL     1     -10.953  19.712  67.228  0.00  0.00    -0.107 NA
ATOM     13  C   UNL     1      -6.651  18.105  65.980  0.00  0.00    +0.059 A 
ENDROOT
BRANCH   1  15
ATOM     14  C   UNL     1      -4.744  20.178  65.453  0.00  0.00    +0.253 C 
ATOM     15  O   UNL     1      -5.078  19.868  65.661  0.00  0.00    -0.468 OA
ENDBRANCH   1  15
BRANCH   2  16
ATOM     16  O   UNL     1      -6.126  21.137  67.908  0.00  0.00    -0.468 OA
ATOM     17  C   UNL     1      -5.480  20.832  69.141  0.00  0.00    +0.253 C 
ENDBRANCH   2  16
BRANCH   9  18
ATOM     18  C   UNL     1     -11.122  14.584  67.502  0.00  0.00    +0.095 C 
BRANCH  18  19
ATOM     19  C   UNL     1     -10.261  14.265  68.695  0.00  0.00    +0.045 C 
BRANCH  19  20
ATOM     20  C   UNL     1     -10.234  15.368  69.720  0.00  0.00    +0.117 C 
BRANCH  20  21
ATOM     21  N   UNL     1     -11.048  14.980  70.872  0.00  0.00    -0.203 NA
ATOM     22  C   UNL     1     -12.443  15.315  70.948  0.00  0.00    +0.269 C 
ATOM     23  O   UNL     1     -12.872  16.183  70.126  0.00  0.00    -0.271 OA
BRANCH  22  24
ATOM     24  C   UNL     1     -12.755  15.973  72.424  0.00  0.00    +0.193 C 
ATOM     25  O   UNL     1     -14.280  15.859  72.262  0.00  0.00    -0.347 OA
ATOM     26  C   UNL     1     -14.401  14.701  71.561  0.00  0.00    +0.143 C 
ATOM     27  C   UNL     1     -13.673  13.713  72.409  0.00  0.00    +0.035 C 
ATOM     28  C   UNL     1     -12.673  14.488  73.183  0.00  0.00    +0.042 C 
ENDBRANCH  22  24
ENDBRANCH  20  21
ENDBRANCH  19  20
ENDBRANCH  18  19
ENDBRANCH   9  18
TORSDOF 7
ENDMDL
MODEL 8
REMARK VINA RESULT:      -6.6      3.565      6.281
REMARK  Name = 
REMARK  7 active torsions:
REMARK  status: ('A' for Active; 'I' for Inactive)
REMARK    1  A    between atoms: O_2  and  C_3
REMARK    2  A    between atoms: N_8  and  C_10
REMARK    3  A    between atoms: C_10  and  C_11
REMARK    4  A    between atoms: C_11  and  C_12
REMARK    5  A    between atoms: C_12  and  N_13
REMARK    6  A    between atoms: C_14  and  C_16
REMARK    7  A    between atoms: C_26  and  O_27
REMARK                            x       y       z     vdW  Elec       q    Type
REMARK                         _______ _______ _______ _____ _____    ______ ____
ROOT
ATOM      1  C   UNL     1      -8.978   9.530  63.683  0.00  0.00    +0.174 A 
ATOM      2  C   UNL     1      -9.385  10.441  62.743  0.00  0.00    +0.173 A 
ATOM      3  C   UNL     1     -10.328  11.372  63.151  0.00  0.00    +0.044 A 
ATOM      4  C   UNL     1     -10.761  11.391  64.448  0.00  0.00    +0.056 A 
ATOM      5  C   UNL     1     -10.120  10.624  65.412  0.00  0.00    +0.090 A 
ATOM      6  N   UNL     1     -10.362  10.953  66.686  0.00  0.00    -0.213 NA
ATOM      7  C   UNL     1     -11.275  11.867  67.023  0.00  0.00    +0.221 A 
ATOM      8  N   UNL     1     -12.116  12.334  66.067  0.00  0.00    -0.195 NA
ATOM      9  N   UNL     1     -11.448  12.283  68.383  0.00  0.00    -0.276 N 
ATOM     10  C   UNL     1     -12.111  11.336  69.258  0.00  0.00    +0.115 C 
ATOM     11  C   UNL     1     -11.957  12.011  64.782  0.00  0.00    +0.174 A 
ATOM     12  N   UNL     1     -12.876  12.399  63.786  0.00  0.00    -0.107 NA
ATOM     13  C   UNL     1      -9.173   9.689  65.044  0.00  0.00    +0.059 A 
ENDROOT
BRANCH   1  15
ATOM     14  C   UNL     1      -8.098   7.936  63.228  0.00  0.00    +0.253 C 
ATOM     15  O   UNL     1      -8.360   8.363  63.239  0.00  0.00    -0.468 OA
ENDBRANCH   1  15
BRANCH   2  16
ATOM     16  O   UNL     1      -8.711  10.548  61.547  0.00  0.00    -0.468 OA
ATOM     17  C   UNL     1      -7.431  11.170  61.453  0.00  0.00    +0.253 C 
ENDBRANCH   2  16
BRANCH   9  18
ATOM     18  C   UNL     1     -11.618  13.706  68.593  0.00  0.00    +0.095 C 
BRANCH  18  19
ATOM     19  C   UNL     1     -10.280  14.376  68.761  0.00  0.00    +0.045 C 
BRANCH  19  20
ATOM     20  C   UNL     1      -9.818  15.098  67.522  0.00  0.00    +0.117 C 
BRANCH  20  21
ATOM     21  N   UNL     1      -9.822  16.540  67.770  0.00  0.00    -0.203 NA
ATOM     22  C   UNL     1      -9.471  17.477  66.740  0.00  0.00    +0.269 C 
ATOM     23  O   UNL     1      -8.901  17.009  65.706  0.00  0.00    -0.271 OA
BRANCH  22  24
ATOM     24  C   UNL     1      -8.385  18.555  67.344  0.00  0.00    +0.193 C 
ATOM     25  O   UNL     1      -8.714  19.627  66.292  0.00  0.00    -0.347 OA
ATOM     26  C   UNL     1     -10.048  19.442  66.112  0.00  0.00    +0.143 C 
ATOM     27  C   UNL     1     -10.598  19.569  67.493  0.00  0.00    +0.035 C 
ATOM     28  C   UNL     1      -9.500  19.188  68.413  0.00  0.00    +0.042 C 
ENDBRANCH  22  24
ENDBRANCH  20  21
ENDBRANCH  19  20
ENDBRANCH  18  19
ENDBRANCH   9  18
TORSDOF 7
ENDMDL
MODEL 9
REMARK VINA RESULT:      -6.5      3.719      7.883
REMARK  Name = 
REMARK  7 active torsions:
REMARK  status: ('A' for Active; 'I' for Inactive)
REMARK    1  A    between atoms: O_2  and  C_3
REMARK    2  A    between atoms: N_8  and  C_10
REMARK    3  A    between atoms: C_10  and  C_11
REMARK    4  A    between atoms: C_11  and  C_12
REMARK    5  A    between atoms: C_12  and  N_13
REMARK    6  A    between atoms: C_14  and  C_16
REMARK    7  A    between atoms: C_26  and  O_27
REMARK                            x       y       z     vdW  Elec       q    Type
REMARK                         _______ _______ _______ _____ _____    ______ ____
ROOT
ATOM      1  C   UNL     1     -12.597  14.325  70.866  0.00  0.00    +0.174 A 
ATOM      2  C   UNL     1     -12.178  13.250  70.125  0.00  0.00    +0.173 A 
ATOM      3  C   UNL     1     -11.565  13.533  68.915  0.00  0.00    +0.044 A 
ATOM      4  C   UNL     1     -11.350  14.830  68.539  0.00  0.00    +0.056 A 
ATOM      5  C   UNL     1     -11.551  15.865  69.444  0.00  0.00    +0.090 A 
ATOM      6  N   UNL     1     -10.997  17.041  69.129  0.00  0.00    -0.213 NA
ATOM      7  C   UNL     1     -10.408  17.256  67.950  0.00  0.00    +0.221 A 
ATOM      8  N   UNL     1     -10.543  16.328  66.973  0.00  0.00    -0.195 NA
ATOM      9  N   UNL     1      -9.728  18.486  67.670  0.00  0.00    -0.276 N 
ATOM     10  C   UNL     1     -10.573  19.639  67.429  0.00  0.00    +0.115 C 
ATOM     11  C   UNL     1     -11.124  15.149  67.208  0.00  0.00    +0.174 A 
ATOM     12  N   UNL     1     -11.368  14.210  66.185  0.00  0.00    -0.107 NA
ATOM     13  C   UNL     1     -12.155  15.620  70.661  0.00  0.00    +0.059 A 
ENDROOT
BRANCH   1  15
ATOM     14  C   UNL     1     -13.983  14.059  72.104  0.00  0.00    +0.253 C 
ATOM     15  O   UNL     1     -13.546  14.103  71.862  0.00  0.00    -0.468 OA
ENDBRANCH   1  15
BRANCH   2  16
ATOM     16  O   UNL     1     -12.168  11.989  70.681  0.00  0.00    -0.468 OA
ATOM     17  C   UNL     1     -12.092  10.811  69.883  0.00  0.00    +0.253 C 
ENDBRANCH   2  16
BRANCH   9  18
ATOM     18  C   UNL     1      -8.455  18.365  66.989  0.00  0.00    +0.095 C 
BRANCH  18  19
ATOM     19  C   UNL     1      -7.966  19.717  66.542  0.00  0.00    +0.045 C 
BRANCH  19  20
ATOM     20  C   UNL     1      -7.153  20.430  67.590  0.00  0.00    +0.117 C 
BRANCH  20  21
ATOM     21  N   UNL     1      -6.333  19.458  68.313  0.00  0.00    -0.203 NA
ATOM     22  C   UNL     1      -5.702  19.791  69.559  0.00  0.00    +0.269 C 
ATOM     23  O   UNL     1      -5.654  21.022  69.869  0.00  0.00    -0.271 OA
BRANCH  22  24
ATOM     24  C   UNL     1      -4.124  19.330  69.500  0.00  0.00    +0.193 C 
ATOM     25  O   UNL     1      -4.001  19.201  71.028  0.00  0.00    -0.347 OA
ATOM     26  C   UNL     1      -5.235  18.746  71.370  0.00  0.00    +0.143 C 
ATOM     27  C   UNL     1      -5.387  17.519  70.535  0.00  0.00    +0.035 C 
ATOM     28  C   UNL     1      -4.526  17.717  69.345  0.00  0.00    +0.042 C 
ENDBRANCH  22  24
ENDBRANCH  20  21
ENDBRANCH  19  20
ENDBRANCH  18  19
ENDBRANCH   9  18
TORSDOF 7
ENDMDL
