MODEL 1
REMARK VINA RESULT:      -5.9      0.000      0.000
REMARK  Name = 
REMARK  5 active torsions:
REMARK  status: ('A' for Active; 'I' for Inactive)
REMARK    1  A    between atoms: O_2  and  C_3
REMARK    2  A    between atoms: C_7  and  O_8
REMARK    3  A    between atoms: C_10  and  O_11
REMARK    4  A    between atoms: C_16  and  O_17
REMARK    5  A    between atoms: C_23  and  N_24
REMARK                            x       y       z     vdW  Elec       q    Type
REMARK                         _______ _______ _______ _____ _____    ______ ____
ROOT
ATOM      1  C   UNL     1     -12.107  13.089  66.565  0.00  0.00    +0.175 A 
ATOM      2  C   UNL     1     -11.252  12.276  67.304  0.00  0.00    +0.206 A 
ATOM      3  C   UNL     1      -9.935  12.644  67.583  0.00  0.00    +0.175 A 
ATOM      4  C   UNL     1      -9.732  14.012  67.484  0.00  0.00    +0.033 A 
ATOM      5  C   UNL     1      -8.285  14.257  67.391  0.00  0.00    +0.001 A 
ATOM      6  C   UNL     1      -7.846  15.574  67.400  0.00  0.00    +0.001 A 
ATOM      7  C   UNL     1      -8.091  16.621  66.175  0.00  0.00    +0.118 C 
ATOM      8  C   UNL     1      -9.650  16.175  65.817  0.00  0.00    +0.031 C 
ATOM      9  C   UNL     1     -10.482  16.326  67.028  0.00  0.00    +0.029 C 
ATOM     10  C   UNL     1      -6.486  15.876  67.458  0.00  0.00    +0.043 A 
ATOM     11  C   UNL     1      -5.398  15.048  67.722  0.00  0.00    +0.229 A 
ATOM     12  O   UNL     1      -4.277  15.456  67.341  0.00  0.00    -0.283 OA
ATOM     13  C   UNL     1      -5.433  13.688  68.007  0.00  0.00    +0.177 A 
ATOM     14  C   UNL     1      -6.543  13.054  68.554  0.00  0.00    +0.040 A 
ATOM     15  C   UNL     1      -7.884  13.418  68.436  0.00  0.00    +0.003 A 
ATOM     16  C   UNL     1     -10.803  14.909  67.422  0.00  0.00    -0.016 A 
ATOM     17  C   UNL     1     -11.886  14.459  66.672  0.00  0.00    +0.036 A 
ENDROOT
BRANCH   7  18
ATOM     18  N   UNL     1      -8.548  17.761  67.197  0.00  0.00    -0.203 NA
ATOM     19  C   UNL     1      -8.068  19.050  66.883  0.00  0.00    +0.242 C 
ATOM     20  O   UNL     1      -8.135  19.426  65.698  0.00  0.00    -0.273 OA
ATOM     21  C   UNL     1      -7.495  19.928  67.930  0.00  0.00    +0.096 C 
ENDBRANCH   7  18
BRANCH   1  23
ATOM     22  C   UNL     1     -12.221  12.506  64.356  0.00  0.00    +0.253 C 
ATOM     23  O   UNL     1     -12.649  12.529  65.401  0.00  0.00    -0.468 OA
ENDBRANCH   1  23
BRANCH   2  24
ATOM     24  O   UNL     1     -11.717  11.013  67.606  0.00  0.00    -0.465 OA
ATOM     25  C   UNL     1     -11.738  10.435  68.881  0.00  0.00    +0.253 C 
ENDBRANCH   2  24
BRANCH   3  26
ATOM     26  O   UNL     1      -9.004  11.686  67.166  0.00  0.00    -0.468 OA
ATOM     27  C   UNL     1      -9.019  11.064  65.914  0.00  0.00    +0.253 C 
ENDBRANCH   3  26
BRANCH  13  28
ATOM     28  O   UNL     1      -4.291  12.953  67.768  0.00  0.00    -0.468 OA
ATOM     29  C   UNL     1      -4.318  11.639  67.215  0.00  0.00    +0.253 C 
ENDBRANCH  13  28
TORSDOF 5
ENDMDL
MODEL 2
REMARK VINA RESULT:      -5.9      3.796      6.059
REMARK  Name = 
REMARK  5 active torsions:
REMARK  status: ('A' for Active; 'I' for Inactive)
REMARK    1  A    between atoms: O_2  and  C_3
REMARK    2  A    between atoms: C_7  and  O_8
REMARK    3  A    between atoms: C_10  and  O_11
REMARK    4  A    between atoms: C_16  and  O_17
REMARK    5  A    between atoms: C_23  and  N_24
REMARK                            x       y       z     vdW  Elec       q    Type
REMARK                         _______ _______ _______ _____ _____    ______ ____
ROOT
ATOM      1  C   UNL     1      -9.015   7.871  67.482  0.00  0.00    +0.175 A 
ATOM      2  C   UNL     1      -9.952   7.926  68.511  0.00  0.00    +0.206 A 
ATOM      3  C   UNL     1     -10.587   9.115  68.873  0.00  0.00    +0.175 A 
ATOM      4  C   UNL     1     -10.564  10.060  67.859  0.00  0.00    +0.033 A 
ATOM      5  C   UNL     1     -10.878  11.371  68.446  0.00  0.00    +0.001 A 
ATOM      6  C   UNL     1     -11.023  12.452  67.587  0.00  0.00    +0.001 A 
ATOM      7  C   UNL     1      -9.791  13.128  66.761  0.00  0.00    +0.118 C 
ATOM      8  C   UNL     1      -9.012  11.721  66.345  0.00  0.00    +0.031 C 
ATOM      9  C   UNL     1      -9.948  10.857  65.598  0.00  0.00    +0.029 C 
ATOM     10  C   UNL     1     -11.458  13.690  68.058  0.00  0.00    +0.043 A 
ATOM     11  C   UNL     1     -12.001  14.035  69.293  0.00  0.00    +0.229 A 
ATOM     12  O   UNL     1     -11.949  15.244  69.611  0.00  0.00    -0.283 OA
ATOM     13  C   UNL     1     -12.249  13.183  70.364  0.00  0.00    +0.177 A 
ATOM     14  C   UNL     1     -12.461  11.817  70.215  0.00  0.00    +0.040 A 
ATOM     15  C   UNL     1     -11.982  10.979  69.209  0.00  0.00    +0.003 A 
ATOM     16  C   UNL     1     -10.221   9.720  66.547  0.00  0.00    -0.016 A 
ATOM     17  C   UNL     1      -9.196   8.784  66.447  0.00  0.00    +0.036 A 
ENDROOT
BRANCH   7  18
ATOM     18  N   UNL     1     -10.662  13.156  65.421  0.00  0.00    -0.203 NA
ATOM     19  C   UNL     1     -10.911  14.451  64.918  0.00  0.00    +0.242 C 
ATOM     20  O   UNL     1      -9.963  15.257  64.881  0.00  0.00    -0.273 OA
ATOM     21  C   UNL     1     -12.263  14.843  64.454  0.00  0.00    +0.096 C 
ENDBRANCH   7  18
BRANCH   1  23
ATOM     22  C   UNL     1      -6.734   7.884  67.649  0.00  0.00    +0.253 C 
ATOM     23  O   UNL     1      -7.740   7.402  67.823  0.00  0.00    -0.468 OA
ENDBRANCH   1  23
BRANCH   2  24
ATOM     24  O   UNL     1     -10.098   6.782  69.268  0.00  0.00    -0.465 OA
ATOM     25  C   UNL     1     -11.313   6.153  69.567  0.00  0.00    +0.253 C 
ENDBRANCH   2  24
BRANCH   3  26
ATOM     26  O   UNL     1     -10.431   9.423  70.229  0.00  0.00    -0.468 OA
ATOM     27  C   UNL     1      -9.272   9.167  70.967  0.00  0.00    +0.253 C 
ENDBRANCH   3  26
BRANCH  13  28
ATOM     28  O   UNL     1     -12.325  13.741  71.622  0.00  0.00    -0.468 OA
ATOM     29  C   UNL     1     -13.503  13.688  72.422  0.00  0.00    +0.253 C 
ENDBRANCH  13  28
TORSDOF 5
ENDMDL
MODEL 3
REMARK VINA RESULT:      -5.7      3.583      6.302
REMARK  Name = 
REMARK  5 active torsions:
REMARK  status: ('A' for Active; 'I' for Inactive)
REMARK    1  A    between atoms: O_2  and  C_3
REMARK    2  A    between atoms: C_7  and  O_8
REMARK    3  A    between atoms: C_10  and  O_11
REMARK    4  A    between atoms: C_16  and  O_17
REMARK    5  A    between atoms: C_23  and  N_24
REMARK                            x       y       z     vdW  Elec       q    Type
REMARK                         _______ _______ _______ _____ _____    ______ ____
ROOT
ATOM      1  C   UNL     1     -11.063   9.351  70.430  0.00  0.00    +0.175 A 
ATOM      2  C   UNL     1     -11.882  10.476  70.493  0.00  0.00    +0.206 A 
ATOM      3  C   UNL     1     -11.792  11.511  69.561  0.00  0.00    +0.175 A 
ATOM      4  C   UNL     1     -11.198  11.110  68.375  0.00  0.00    +0.033 A 
ATOM      5  C   UNL     1     -10.787  12.313  67.637  0.00  0.00    +0.001 A 
ATOM      6  C   UNL     1     -10.270  12.147  66.360  0.00  0.00    +0.001 A 
ATOM      7  C   UNL     1      -8.820  11.472  66.046  0.00  0.00    +0.118 C 
ATOM      8  C   UNL     1      -8.903  10.250  67.168  0.00  0.00    +0.031 C 
ATOM      9  C   UNL     1     -10.110   9.440  66.907  0.00  0.00    +0.029 C 
ATOM     10  C   UNL     1      -9.992  13.249  65.550  0.00  0.00    +0.043 A 
ATOM     11  C   UNL     1     -10.338  14.588  65.714  0.00  0.00    +0.229 A 
ATOM     12  O   UNL     1      -9.658  15.424  65.078  0.00  0.00    -0.283 OA
ATOM     13  C   UNL     1     -11.073  15.138  66.758  0.00  0.00    +0.177 A 
ATOM     14  C   UNL     1     -11.982  14.408  67.515  0.00  0.00    +0.040 A 
ATOM     15  C   UNL     1     -11.973  13.040  67.783  0.00  0.00    +0.003 A 
ATOM     16  C   UNL     1     -11.014   9.758  68.069  0.00  0.00    -0.016 A 
ATOM     17  C   UNL     1     -10.656   8.967  69.156  0.00  0.00    +0.036 A 
ENDROOT
BRANCH   7  18
ATOM     18  N   UNL     1      -9.451  10.578  64.882  0.00  0.00    -0.203 NA
ATOM     19  C   UNL     1      -8.594  10.369  63.781  0.00  0.00    +0.242 C 
ATOM     20  O   UNL     1      -7.407  10.073  64.011  0.00  0.00    -0.273 OA
ATOM     21  C   UNL     1      -9.090  10.505  62.391  0.00  0.00    +0.096 C 
ENDBRANCH   7  18
BRANCH   1  23
ATOM     22  C   UNL     1     -10.138   8.129  72.128  0.00  0.00    +0.253 C 
ATOM     23  O   UNL     1     -10.270   9.094  71.557  0.00  0.00    -0.468 OA
ENDBRANCH   1  23
BRANCH   2  24
ATOM     24  O   UNL     1     -12.672  10.597  71.618  0.00  0.00    -0.465 OA
ATOM     25  C   UNL     1     -13.592   9.645  72.074  0.00  0.00    +0.253 C 
ENDBRANCH   2  24
BRANCH   3  26
ATOM     26  O   UNL     1     -11.579  12.760  70.156  0.00  0.00    -0.468 OA
ATOM     27  C   UNL     1     -12.493  13.397  71.001  0.00  0.00    +0.253 C 
ENDBRANCH   3  26
BRANCH  13  28
ATOM     28  O   UNL     1     -10.912  16.483  67.015  0.00  0.00    -0.468 OA
ATOM     29  C   UNL     1     -10.492  16.984  68.282  0.00  0.00    +0.253 C 
ENDBRANCH  13  28
TORSDOF 5
ENDMDL
MODEL 4
REMARK VINA RESULT:      -5.6      1.793      4.765
REMARK  Name = 
REMARK  5 active torsions:
REMARK  status: ('A' for Active; 'I' for Inactive)
REMARK    1  A    between atoms: O_2  and  C_3
REMARK    2  A    between atoms: C_7  and  O_8
REMARK    3  A    between atoms: C_10  and  O_11
REMARK    4  A    between atoms: C_16  and  O_17
REMARK    5  A    between atoms: C_23  and  N_24
REMARK                            x       y       z     vdW  Elec       q    Type
REMARK                         _______ _______ _______ _____ _____    ______ ____
ROOT
ATOM      1  C   UNL     1     -10.741  11.272  66.913  0.00  0.00    +0.175 A 
ATOM      2  C   UNL     1     -11.188  12.441  66.303  0.00  0.00    +0.206 A 
ATOM      3  C   UNL     1     -10.475  13.638  66.382  0.00  0.00    +0.175 A 
ATOM      4  C   UNL     1      -9.137  13.441  66.683  0.00  0.00    +0.033 A 
ATOM      5  C   UNL     1      -8.574  14.722  67.136  0.00  0.00    +0.001 A 
ATOM      6  C   UNL     1      -7.210  14.783  67.382  0.00  0.00    +0.001 A 
ATOM      7  C   UNL     1      -6.477  14.033  68.630  0.00  0.00    +0.118 C 
ATOM      8  C   UNL     1      -7.336  12.613  68.563  0.00  0.00    +0.031 C 
ATOM      9  C   UNL     1      -7.181  12.022  67.218  0.00  0.00    +0.029 C 
ATOM     10  C   UNL     1      -6.587  15.997  67.676  0.00  0.00    +0.043 A 
ATOM     11  C   UNL     1      -7.075  17.297  67.577  0.00  0.00    +0.229 A 
ATOM     12  O   UNL     1      -6.484  18.170  68.252  0.00  0.00    -0.283 OA
ATOM     13  C   UNL     1      -8.334  17.686  67.136  0.00  0.00    +0.177 A 
ATOM     14  C   UNL     1      -9.110  16.915  66.277  0.00  0.00    +0.040 A 
ATOM     15  C   UNL     1      -9.101  15.530  66.122  0.00  0.00    +0.003 A 
ATOM     16  C   UNL     1      -8.545  12.178  66.598  0.00  0.00    -0.016 A 
ATOM     17  C   UNL     1      -9.361  11.132  67.020  0.00  0.00    +0.036 A 
ENDROOT
BRANCH   7  18
ATOM     18  N   UNL     1      -5.320  13.493  67.669  0.00  0.00    -0.203 NA
ATOM     19  C   UNL     1      -4.032  13.514  68.242  0.00  0.00    +0.242 C 
ATOM     20  O   UNL     1      -3.904  13.101  69.410  0.00  0.00    -0.273 OA
ATOM     21  C   UNL     1      -2.864  14.018  67.481  0.00  0.00    +0.096 C 
ENDBRANCH   7  18
BRANCH   1  23
ATOM     22  C   UNL     1     -11.755  10.941  68.937  0.00  0.00    +0.253 C 
ATOM     23  O   UNL     1     -11.606  10.686  67.847  0.00  0.00    -0.468 OA
ENDBRANCH   1  23
BRANCH   2  24
ATOM     24  O   UNL     1     -12.455  12.401  65.757  0.00  0.00    -0.465 OA
ATOM     25  C   UNL     1     -12.758  12.504  64.394  0.00  0.00    +0.253 C 
ENDBRANCH   2  24
BRANCH   3  26
ATOM     26  O   UNL     1     -11.241  14.694  66.889  0.00  0.00    -0.468 OA
ATOM     27  C   UNL     1     -11.884  14.676  68.131  0.00  0.00    +0.253 C 
ENDBRANCH   3  26
BRANCH  13  28
ATOM     28  O   UNL     1      -8.806  18.915  67.546  0.00  0.00    -0.468 OA
ATOM     29  C   UNL     1     -10.080  19.423  67.157  0.00  0.00    +0.253 C 
ENDBRANCH  13  28
TORSDOF 5
ENDMDL
MODEL 5
REMARK VINA RESULT:      -5.5      3.670      6.063
REMARK  Name = 
REMARK  5 active torsions:
REMARK  status: ('A' for Active; 'I' for Inactive)
REMARK    1  A    between atoms: O_2  and  C_3
REMARK    2  A    between atoms: C_7  and  O_8
REMARK    3  A    between atoms: C_10  and  O_11
REMARK    4  A    between atoms: C_16  and  O_17
REMARK    5  A    between atoms: C_23  and  N_24
REMARK                            x       y       z     vdW  Elec       q    Type
REMARK                         _______ _______ _______ _____ _____    ______ ____
ROOT
ATOM      1  C   UNL     1     -12.758   8.364  71.877  0.00  0.00    +0.175 A 
ATOM      2  C   UNL     1     -11.490   7.788  71.905  0.00  0.00    +0.206 A 
ATOM      3  C   UNL     1     -10.471   8.196  71.043  0.00  0.00    +0.175 A 
ATOM      4  C   UNL     1     -10.680   9.469  70.537  0.00  0.00    +0.033 A 
ATOM      5  C   UNL     1      -9.808   9.648  69.367  0.00  0.00    +0.001 A 
ATOM      6  C   UNL     1      -9.770  10.900  68.768  0.00  0.00    +0.001 A 
ATOM      7  C   UNL     1     -11.011  11.544  67.930  0.00  0.00    +0.118 C 
ATOM      8  C   UNL     1     -12.235  11.044  68.934  0.00  0.00    +0.031 C 
ATOM      9  C   UNL     1     -11.981  11.561  70.294  0.00  0.00    +0.029 C 
ATOM     10  C   UNL     1      -8.863  11.179  67.746  0.00  0.00    +0.043 A 
ATOM     11  C   UNL     1      -7.768  10.444  67.299  0.00  0.00    +0.229 A 
ATOM     12  O   UNL     1      -7.354  10.700  66.146  0.00  0.00    -0.283 OA
ATOM     13  C   UNL     1      -7.316   9.230  67.802  0.00  0.00    +0.177 A 
ATOM     14  C   UNL     1      -7.560   8.807  69.104  0.00  0.00    +0.040 A 
ATOM     15  C   UNL     1      -8.630   9.146  69.930  0.00  0.00    +0.003 A 
ATOM     16  C   UNL     1     -11.635  10.329  71.088  0.00  0.00    -0.016 A 
ATOM     17  C   UNL     1     -12.809   9.700  71.491  0.00  0.00    +0.036 A 
ENDROOT
BRANCH   7  18
ATOM     18  N   UNL     1     -10.834  12.944  68.681  0.00  0.00    -0.203 NA
ATOM     19  C   UNL     1     -11.089  14.072  67.874  0.00  0.00    +0.242 C 
ATOM     20  O   UNL     1     -12.097  14.054  67.143  0.00  0.00    -0.273 OA
ATOM     21  C   UNL     1     -10.180  15.243  67.889  0.00  0.00    +0.096 C 
ENDBRANCH   7  18
BRANCH   1  23
ATOM     22  C   UNL     1     -14.922   7.624  71.907  0.00  0.00    +0.253 C 
ATOM     23  O   UNL     1     -13.832   7.496  71.641  0.00  0.00    -0.468 OA
ENDBRANCH   1  23
BRANCH   2  24
ATOM     24  O   UNL     1     -11.339   6.679  72.712  0.00  0.00    -0.465 OA
ATOM     25  C   UNL     1     -10.432   6.560  73.772  0.00  0.00    +0.253 C 
ENDBRANCH   2  24
BRANCH   3  26
ATOM     26  O   UNL     1      -9.935   7.140  70.298  0.00  0.00    -0.468 OA
ATOM     27  C   UNL     1     -10.700   6.199  69.601  0.00  0.00    +0.253 C 
ENDBRANCH   3  26
BRANCH  13  28
ATOM     28  O   UNL     1      -6.556   8.435  66.969  0.00  0.00    -0.468 OA
ATOM     29  C   UNL     1      -6.980   7.146  66.532  0.00  0.00    +0.253 C 
ENDBRANCH  13  28
TORSDOF 5
ENDMDL
MODEL 6
REMARK VINA RESULT:      -5.5      2.853      6.353
REMARK  Name = 
REMARK  5 active torsions:
REMARK  status: ('A' for Active; 'I' for Inactive)
REMARK    1  A    between atoms: O_2  and  C_3
REMARK    2  A    between atoms: C_7  and  O_8
REMARK    3  A    between atoms: C_10  and  O_11
REMARK    4  A    between atoms: C_16  and  O_17
REMARK    5  A    between atoms: C_23  and  N_24
REMARK                            x       y       z     vdW  Elec       q    Type
REMARK                         _______ _______ _______ _____ _____    ______ ____
ROOT
ATOM      1  C   UNL     1      -8.202  18.042  68.005  0.00  0.00    +0.175 A 
ATOM      2  C   UNL     1      -8.177  17.194  66.901  0.00  0.00    +0.206 A 
ATOM      3  C   UNL     1      -8.888  15.993  66.872  0.00  0.00    +0.175 A 
ATOM      4  C   UNL     1      -9.934  15.972  67.781  0.00  0.00    +0.033 A 
ATOM      5  C   UNL     1     -10.354  14.575  67.966  0.00  0.00    +0.001 A 
ATOM      6  C   UNL     1     -11.471  14.330  68.753  0.00  0.00    +0.001 A 
ATOM      7  C   UNL     1     -11.509  14.545  70.369  0.00  0.00    +0.118 C 
ATOM      8  C   UNL     1     -10.643  15.961  70.420  0.00  0.00    +0.031 C 
ATOM      9  C   UNL     1     -11.319  16.968  69.575  0.00  0.00    +0.029 C 
ATOM     10  C   UNL     1     -12.008  13.047  68.857  0.00  0.00    +0.043 A 
ATOM     11  C   UNL     1     -11.734  11.902  68.114  0.00  0.00    +0.229 A 
ATOM     12  O   UNL     1     -12.045  10.807  68.635  0.00  0.00    -0.283 OA
ATOM     13  C   UNL     1     -10.837  11.786  67.058  0.00  0.00    +0.177 A 
ATOM     14  C   UNL     1     -10.451  12.862  66.267  0.00  0.00    +0.040 A 
ATOM     15  C   UNL     1     -10.401  14.211  66.617  0.00  0.00    +0.003 A 
ATOM     16  C   UNL     1     -10.386  17.139  68.405  0.00  0.00    -0.016 A 
ATOM     17  C   UNL     1      -9.377  18.032  68.752  0.00  0.00    +0.036 A 
ENDROOT
BRANCH   7  18
ATOM     18  N   UNL     1     -12.917  15.296  70.268  0.00  0.00    -0.203 NA
ATOM     19  C   UNL     1     -13.681  15.258  71.453  0.00  0.00    +0.242 C 
ATOM     20  O   UNL     1     -13.101  15.487  72.531  0.00  0.00    -0.273 OA
ATOM     21  C   UNL     1     -15.130  14.948  71.419  0.00  0.00    +0.096 C 
ENDBRANCH   7  18
BRANCH   1  23
ATOM     22  C   UNL     1      -6.325  17.681  69.261  0.00  0.00    +0.253 C 
ATOM     23  O   UNL     1      -6.966  18.332  68.598  0.00  0.00    -0.468 OA
ENDBRANCH   1  23
BRANCH   2  24
ATOM     24  O   UNL     1      -7.281  17.515  65.902  0.00  0.00    -0.465 OA
ATOM     25  C   UNL     1      -6.949  18.812  65.491  0.00  0.00    +0.253 C 
ENDBRANCH   2  24
BRANCH   3  26
ATOM     26  O   UNL     1      -8.076  14.888  66.593  0.00  0.00    -0.468 OA
ATOM     27  C   UNL     1      -7.023  14.458  67.405  0.00  0.00    +0.253 C 
ENDBRANCH   3  26
BRANCH  13  28
ATOM     28  O   UNL     1     -10.346  10.530  66.769  0.00  0.00    -0.468 OA
ATOM     29  C   UNL     1      -9.984  10.126  65.451  0.00  0.00    +0.253 C 
ENDBRANCH  13  28
TORSDOF 5
ENDMDL
MODEL 7
REMARK VINA RESULT:      -5.4      4.275      7.785
REMARK  Name = 
REMARK  5 active torsions:
REMARK  status: ('A' for Active; 'I' for Inactive)
REMARK    1  A    between atoms: O_2  and  C_3
REMARK    2  A    between atoms: C_7  and  O_8
REMARK    3  A    between atoms: C_10  and  O_11
REMARK    4  A    between atoms: C_16  and  O_17
REMARK    5  A    between atoms: C_23  and  N_24
REMARK                            x       y       z     vdW  Elec       q    Type
REMARK                         _______ _______ _______ _____ _____    ______ ____
ROOT
ATOM      1  C   UNL     1     -11.748  12.988  69.039  0.00  0.00    +0.175 A 
ATOM      2  C   UNL     1     -11.547  12.539  67.736  0.00  0.00    +0.206 A 
ATOM      3  C   UNL     1     -11.035  11.270  67.460  0.00  0.00    +0.175 A 
ATOM      4  C   UNL     1     -11.203  10.388  68.516  0.00  0.00    +0.033 A 
ATOM      5  C   UNL     1     -10.304   9.243  68.305  0.00  0.00    +0.001 A 
ATOM      6  C   UNL     1     -10.391   8.176  69.189  0.00  0.00    +0.001 A 
ATOM      7  C   UNL     1      -9.919   8.247  70.748  0.00  0.00    +0.118 C 
ATOM      8  C   UNL     1     -10.500   9.766  71.082  0.00  0.00    +0.031 C 
ATOM      9  C   UNL     1     -11.950   9.797  70.800  0.00  0.00    +0.029 C 
ATOM     10  C   UNL     1      -9.673   7.001  68.968  0.00  0.00    +0.043 A 
ATOM     11  C   UNL     1      -8.973   6.581  67.839  0.00  0.00    +0.229 A 
ATOM     12  O   UNL     1      -8.107   5.694  68.015  0.00  0.00    -0.283 OA
ATOM     13  C   UNL     1      -8.841   7.265  66.636  0.00  0.00    +0.177 A 
ATOM     14  C   UNL     1      -9.763   8.206  66.192  0.00  0.00    +0.040 A 
ATOM     15  C   UNL     1     -10.603   9.013  66.958  0.00  0.00    +0.003 A 
ATOM     16  C   UNL     1     -12.060  10.675  69.582  0.00  0.00    -0.016 A 
ATOM     17  C   UNL     1     -12.057  12.009  69.978  0.00  0.00    +0.036 A 
ENDROOT
BRANCH   7  18
ATOM     18  N   UNL     1     -11.261   7.521  71.222  0.00  0.00    -0.203 NA
ATOM     19  C   UNL     1     -11.142   6.817  72.438  0.00  0.00    +0.242 C 
ATOM     20  O   UNL     1     -10.550   7.373  73.381  0.00  0.00    -0.273 OA
ATOM     21  C   UNL     1     -11.700   5.452  72.588  0.00  0.00    +0.096 C 
ENDBRANCH   7  18
BRANCH   1  23
ATOM     22  C   UNL     1     -11.467  15.066  69.954  0.00  0.00    +0.253 C 
ATOM     23  O   UNL     1     -11.074  14.161  69.405  0.00  0.00    -0.468 OA
ENDBRANCH   1  23
BRANCH   2  24
ATOM     24  O   UNL     1     -11.719  13.470  66.733  0.00  0.00    -0.465 OA
ATOM     25  C   UNL     1     -12.467  13.280  65.564  0.00  0.00    +0.253 C 
ENDBRANCH   2  24
BRANCH   3  26
ATOM     26  O   UNL     1      -9.895  11.309  66.650  0.00  0.00    -0.468 OA
ATOM     27  C   UNL     1      -8.786  12.127  66.888  0.00  0.00    +0.253 C 
ENDBRANCH   3  26
BRANCH  13  28
ATOM     28  O   UNL     1      -7.761   6.954  65.838  0.00  0.00    -0.468 OA
ATOM     29  C   UNL     1      -7.887   6.642  64.453  0.00  0.00    +0.253 C 
ENDBRANCH  13  28
TORSDOF 5
ENDMDL
MODEL 8
REMARK VINA RESULT:      -5.4      2.074      5.810
REMARK  Name = 
REMARK  5 active torsions:
REMARK  status: ('A' for Active; 'I' for Inactive)
REMARK    1  A    between atoms: O_2  and  C_3
REMARK    2  A    between atoms: C_7  and  O_8
REMARK    3  A    between atoms: C_10  and  O_11
REMARK    4  A    between atoms: C_16  and  O_17
REMARK    5  A    between atoms: C_23  and  N_24
REMARK                            x       y       z     vdW  Elec       q    Type
REMARK                         _______ _______ _______ _____ _____    ______ ____
ROOT
ATOM      1  C   UNL     1      -8.775  18.440  67.537  0.00  0.00    +0.175 A 
ATOM      2  C   UNL     1      -7.616  17.780  67.936  0.00  0.00    +0.206 A 
ATOM      3  C   UNL     1      -7.526  16.387  67.956  0.00  0.00    +0.175 A 
ATOM      4  C   UNL     1      -8.460  15.781  67.131  0.00  0.00    +0.033 A 
ATOM      5  C   UNL     1      -8.561  14.365  67.513  0.00  0.00    +0.001 A 
ATOM      6  C   UNL     1      -9.360  13.537  66.737  0.00  0.00    +0.001 A 
ATOM      7  C   UNL     1     -10.987  13.629  66.687  0.00  0.00    +0.118 C 
ATOM      8  C   UNL     1     -11.110  15.286  66.688  0.00  0.00    +0.031 C 
ATOM      9  C   UNL     1     -10.354  15.823  65.538  0.00  0.00    +0.029 C 
ATOM     10  C   UNL     1      -9.392  12.159  66.956  0.00  0.00    +0.043 A 
ATOM     11  C   UNL     1      -8.566  11.361  67.743  0.00  0.00    +0.229 A 
ATOM     12  O   UNL     1      -9.021  10.245  68.081  0.00  0.00    -0.283 OA
ATOM     13  C   UNL     1      -7.480  11.779  68.505  0.00  0.00    +0.177 A 
ATOM     14  C   UNL     1      -6.753  12.931  68.225  0.00  0.00    +0.040 A 
ATOM     15  C   UNL     1      -7.192  14.088  67.584  0.00  0.00    +0.003 A 
ATOM     16  C   UNL     1      -9.173  16.509  66.174  0.00  0.00    -0.016 A 
ATOM     17  C   UNL     1      -9.551  17.783  66.586  0.00  0.00    +0.036 A 
ENDROOT
BRANCH   7  18
ATOM     18  N   UNL     1     -10.976  13.534  65.092  0.00  0.00    -0.203 NA
ATOM     19  C   UNL     1     -12.048  12.796  64.547  0.00  0.00    +0.242 C 
ATOM     20  O   UNL     1     -13.190  13.003  64.998  0.00  0.00    -0.273 OA
ATOM     21  C   UNL     1     -11.823  11.799  63.474  0.00  0.00    +0.096 C 
ENDBRANCH   7  18
BRANCH   1  23
ATOM     22  C   UNL     1     -10.188  20.055  68.330  0.00  0.00    +0.253 C 
ATOM     23  O   UNL     1      -9.352  19.309  68.472  0.00  0.00    -0.468 OA
ENDBRANCH   1  23
BRANCH   2  24
ATOM     24  O   UNL     1      -6.617  18.566  68.472  0.00  0.00    -0.465 OA
ATOM     25  C   UNL     1      -5.898  19.551  67.785  0.00  0.00    +0.253 C 
ENDBRANCH   2  24
BRANCH   3  26
ATOM     26  O   UNL     1      -7.150  15.885  69.207  0.00  0.00    -0.468 OA
ATOM     27  C   UNL     1      -5.933  16.165  69.836  0.00  0.00    +0.253 C 
ENDBRANCH   3  26
BRANCH  13  28
ATOM     28  O   UNL     1      -7.094  10.981  69.561  0.00  0.00    -0.468 OA
ATOM     29  C   UNL     1      -5.887  11.194  70.289  0.00  0.00    +0.253 C 
ENDBRANCH  13  28
TORSDOF 5
ENDMDL
MODEL 9
REMARK VINA RESULT:      -5.4      2.776      6.075
REMARK  Name = 
REMARK  5 active torsions:
REMARK  status: ('A' for Active; 'I' for Inactive)
REMARK    1  A    between atoms: O_2  and  C_3
REMARK    2  A    between atoms: C_7  and  O_8
REMARK    3  A    between atoms: C_10  and  O_11
REMARK    4  A    between atoms: C_16  and  O_17
REMARK    5  A    between atoms: C_23  and  N_24
REMARK                            x       y       z     vdW  Elec       q    Type
REMARK                         _______ _______ _______ _____ _____    ______ ____
ROOT
ATOM      1  C   UNL     1      -9.748  17.917  67.263  0.00  0.00    +0.175 A 
ATOM      2  C   UNL     1      -8.985  17.121  68.113  0.00  0.00    +0.206 A 
ATOM      3  C   UNL     1      -9.133  15.733  68.161  0.00  0.00    +0.175 A 
ATOM      4  C   UNL     1      -9.716  15.221  67.014  0.00  0.00    +0.033 A 
ATOM      5  C   UNL     1     -10.192  13.861  67.308  0.00  0.00    +0.001 A 
ATOM      6  C   UNL     1     -10.711  13.112  66.261  0.00  0.00    +0.001 A 
ATOM      7  C   UNL     1     -12.128  13.438  65.525  0.00  0.00    +0.118 C 
ATOM      8  C   UNL     1     -11.976  15.091  65.484  0.00  0.00    +0.031 C 
ATOM      9  C   UNL     1     -10.732  15.440  64.767  0.00  0.00    +0.029 C 
ATOM     10  C   UNL     1     -11.048  11.770  66.437  0.00  0.00    +0.043 A 
ATOM     11  C   UNL     1     -10.768  10.910  67.496  0.00  0.00    +0.229 A 
ATOM     12  O   UNL     1     -11.493   9.895  67.601  0.00  0.00    -0.283 OA
ATOM     13  C   UNL     1     -10.052  11.211  68.649  0.00  0.00    +0.177 A 
ATOM     14  C   UNL     1      -9.102  12.225  68.711  0.00  0.00    +0.040 A 
ATOM     15  C   UNL     1      -9.042  13.392  67.952  0.00  0.00    +0.003 A 
ATOM     16  C   UNL     1      -9.836  15.984  65.848  0.00  0.00    -0.016 A 
ATOM     17  C   UNL     1     -10.146  17.323  66.070  0.00  0.00    +0.036 A 
ENDROOT
BRANCH   7  18
ATOM     18  N   UNL     1     -11.463  13.243  64.085  0.00  0.00    -0.203 NA
ATOM     19  C   UNL     1     -11.829  12.047  63.433  0.00  0.00    +0.242 C 
ATOM     20  O   UNL     1     -13.030  11.718  63.445  0.00  0.00    -0.273 OA
ATOM     21  C   UNL     1     -10.815  11.202  62.759  0.00  0.00    +0.096 C 
ENDBRANCH   7  18
BRANCH   1  23
ATOM     22  C   UNL     1     -10.548  20.024  67.651  0.00  0.00    +0.253 C 
ATOM     23  O   UNL     1     -10.518  18.917  67.871  0.00  0.00    -0.468 OA
ENDBRANCH   1  23
BRANCH   2  24
ATOM     24  O   UNL     1      -8.193  17.784  69.028  0.00  0.00    -0.465 OA
ATOM     25  C   UNL     1      -6.799  17.689  69.119  0.00  0.00    +0.253 C 
ENDBRANCH   2  24
BRANCH   3  26
ATOM     26  O   UNL     1      -9.402  15.260  69.451  0.00  0.00    -0.468 OA
ATOM     27  C   UNL     1     -10.519  15.627  70.208  0.00  0.00    +0.253 C 
ENDBRANCH   3  26
BRANCH  13  28
ATOM     28  O   UNL     1     -10.277  10.432  69.764  0.00  0.00    -0.468 OA
ATOM     29  C   UNL     1      -9.330   9.482  70.247  0.00  0.00    +0.253 C 
ENDBRANCH  13  28
TORSDOF 5
ENDMDL
