MODEL 1
REMARK VINA RESULT:      -5.0      0.000      0.000
REMARK  Name = 
REMARK  4 active torsions:
REMARK  status: ('A' for Active; 'I' for Inactive)
REMARK    1  A    between atoms: C_2  and  C_3
REMARK    2  A    between atoms: C_3  and  C_4
REMARK    3  A    between atoms: C_4  and  C_6
REMARK    4  A    between atoms: C_6  and  C_7
REMARK                            x       y       z     vdW  Elec       q    Type
REMARK                         _______ _______ _______ _____ _____    ______ ____
ROOT
ATOM      1  C   UNL     1      -9.882  14.489  66.905  0.00  0.00    +0.141 C 
ATOM      2  C   UNL     1      -9.205  15.748  66.455  0.00  0.00    +0.257 C 
ATOM      3  O   UNL     1      -7.945  15.808  66.569  0.00  0.00    -0.272 OA
ATOM      4  N   UNL     1      -9.941  16.552  65.538  0.00  0.00    -0.125 NA
ATOM      5  C   UNL     1     -11.001  15.921  64.807  0.00  0.00    +0.352 C 
ATOM      6  O   UNL     1     -11.605  16.625  63.963  0.00  0.00    -0.248 OA
ATOM      7  N   UNL     1     -10.872  14.497  64.693  0.00  0.00    -0.125 NA
ATOM      8  C   UNL     1     -10.182  13.730  65.697  0.00  0.00    +0.257 C 
ATOM      9  O   UNL     1     -10.438  12.488  65.660  0.00  0.00    -0.272 OA
ENDROOT
BRANCH   1  10
ATOM     10  C   UNL     1     -11.351  14.975  67.407  0.00  0.00    +0.017 C 
ATOM     11  C   UNL     1     -11.691  13.594  68.209  0.00  0.00    +0.001 C 
BRANCH  10  12
ATOM     12  C   UNL     1     -10.734  15.694  68.736  0.00  0.00    +0.001 C 
BRANCH  12  14
ATOM     13  C   UNL     1     -11.663  16.030  70.893  0.00  0.00    +0.000 C 
ATOM     14  C   UNL     1     -11.943  15.658  69.654  0.00  0.00    +0.000 C 
ENDBRANCH  12  14
ENDBRANCH  10  12
ENDBRANCH   1  10
BRANCH   1  15
ATOM     15  C   UNL     1      -9.131  13.915  67.986  0.00  0.00    +0.018 C 
ATOM     16  C   UNL     1      -8.120  12.883  67.688  0.00  0.00    +0.001 C 
ENDBRANCH   1  15
TORSDOF 4
ENDMDL
MODEL 2
REMARK VINA RESULT:      -4.7      1.632      2.223
REMARK  Name = 
REMARK  4 active torsions:
REMARK  status: ('A' for Active; 'I' for Inactive)
REMARK    1  A    between atoms: C_2  and  C_3
REMARK    2  A    between atoms: C_3  and  C_4
REMARK    3  A    between atoms: C_4  and  C_6
REMARK    4  A    between atoms: C_6  and  C_7
REMARK                            x       y       z     vdW  Elec       q    Type
REMARK                         _______ _______ _______ _____ _____    ______ ____
ROOT
ATOM      1  C   UNL     1     -10.456  14.282  66.591  0.00  0.00    +0.141 C 
ATOM      2  C   UNL     1     -11.181  15.059  65.535  0.00  0.00    +0.257 C 
ATOM      3  O   UNL     1     -10.566  16.022  64.991  0.00  0.00    -0.272 OA
ATOM      4  N   UNL     1     -12.278  14.391  64.920  0.00  0.00    -0.125 NA
ATOM      5  C   UNL     1     -12.322  12.961  65.018  0.00  0.00    +0.352 C 
ATOM      6  O   UNL     1     -13.262  12.381  64.424  0.00  0.00    -0.248 OA
ATOM      7  N   UNL     1     -11.048  12.347  65.257  0.00  0.00    -0.125 NA
ATOM      8  C   UNL     1     -10.004  13.050  65.957  0.00  0.00    +0.257 C 
ATOM      9  O   UNL     1      -9.085  12.296  66.399  0.00  0.00    -0.272 OA
ENDROOT
BRANCH   1  10
ATOM     10  C   UNL     1     -11.628  13.768  67.595  0.00  0.00    +0.017 C 
ATOM     11  C   UNL     1     -10.604  13.142  68.702  0.00  0.00    +0.001 C 
BRANCH  10  12
ATOM     12  C   UNL     1     -11.703  15.210  68.357  0.00  0.00    +0.001 C 
BRANCH  12  14
ATOM     13  C   UNL     1     -12.235  15.769  70.600  0.00  0.00    +0.000 C 
ATOM     14  C   UNL     1     -12.157  14.769  69.736  0.00  0.00    +0.000 C 
ENDBRANCH  12  14
ENDBRANCH  10  12
ENDBRANCH   1  10
BRANCH   1  15
ATOM     15  C   UNL     1      -9.543  15.156  67.271  0.00  0.00    +0.018 C 
ATOM     16  C   UNL     1      -8.125  15.171  66.861  0.00  0.00    +0.001 C 
ENDBRANCH   1  15
TORSDOF 4
ENDMDL
MODEL 3
REMARK VINA RESULT:      -4.7      2.684      4.268
REMARK  Name = 
REMARK  4 active torsions:
REMARK  status: ('A' for Active; 'I' for Inactive)
REMARK    1  A    between atoms: C_2  and  C_3
REMARK    2  A    between atoms: C_3  and  C_4
REMARK    3  A    between atoms: C_4  and  C_6
REMARK    4  A    between atoms: C_6  and  C_7
REMARK                            x       y       z     vdW  Elec       q    Type
REMARK                         _______ _______ _______ _____ _____    ______ ____
ROOT
ATOM      1  C   UNL     1      -9.945  16.391  67.232  0.00  0.00    +0.141 C 
ATOM      2  C   UNL     1     -10.061  17.053  65.893  0.00  0.00    +0.257 C 
ATOM      3  O   UNL     1     -10.689  16.432  64.986  0.00  0.00    -0.272 OA
ATOM      4  N   UNL     1      -9.878  18.465  65.883  0.00  0.00    -0.125 NA
ATOM      5  C   UNL     1     -10.042  19.163  67.126  0.00  0.00    +0.352 C 
ATOM      6  O   UNL     1      -9.933  20.411  67.094  0.00  0.00    -0.248 OA
ATOM      7  N   UNL     1     -10.849  18.470  68.089  0.00  0.00    -0.125 NA
ATOM      8  C   UNL     1     -10.929  17.032  68.094  0.00  0.00    +0.257 C 
ATOM      9  O   UNL     1     -11.376  16.548  69.178  0.00  0.00    -0.272 OA
ENDROOT
BRANCH   1  10
ATOM     10  C   UNL     1      -8.530  16.927  67.829  0.00  0.00    +0.017 C 
ATOM     11  C   UNL     1      -8.407  15.766  68.970  0.00  0.00    +0.001 C 
BRANCH  10  12
ATOM     12  C   UNL     1      -7.666  16.068  66.742  0.00  0.00    +0.001 C 
BRANCH  12  14
ATOM     13  C   UNL     1      -6.313  17.857  65.970  0.00  0.00    +0.000 C 
ATOM     14  C   UNL     1      -6.346  16.816  66.787  0.00  0.00    +0.000 C 
ENDBRANCH  12  14
ENDBRANCH  10  12
ENDBRANCH   1  10
BRANCH   1  15
ATOM     15  C   UNL     1      -9.920  14.967  67.049  0.00  0.00    +0.018 C 
ATOM     16  C   UNL     1     -11.187  14.214  67.113  0.00  0.00    +0.001 C 
ENDBRANCH   1  15
TORSDOF 4
ENDMDL
MODEL 4
REMARK VINA RESULT:      -4.7      1.954      2.328
REMARK  Name = 
REMARK  4 active torsions:
REMARK  status: ('A' for Active; 'I' for Inactive)
REMARK    1  A    between atoms: C_2  and  C_3
REMARK    2  A    between atoms: C_3  and  C_4
REMARK    3  A    between atoms: C_4  and  C_6
REMARK    4  A    between atoms: C_6  and  C_7
REMARK                            x       y       z     vdW  Elec       q    Type
REMARK                         _______ _______ _______ _____ _____    ______ ____
ROOT
ATOM      1  C   UNL     1      -9.924  15.382  67.813  0.00  0.00    +0.141 C 
ATOM      2  C   UNL     1      -9.267  16.383  68.716  0.00  0.00    +0.257 C 
ATOM      3  O   UNL     1      -8.088  16.134  69.105  0.00  0.00    -0.272 OA
ATOM      4  N   UNL     1      -9.813  17.697  68.683  0.00  0.00    -0.125 NA
ATOM      5  C   UNL     1     -10.594  18.061  67.535  0.00  0.00    +0.352 C 
ATOM      6  O   UNL     1     -11.022  19.239  67.492  0.00  0.00    -0.248 OA
ATOM      7  N   UNL     1     -10.316  17.284  66.363  0.00  0.00    -0.125 NA
ATOM      8  C   UNL     1      -9.840  15.929  66.465  0.00  0.00    +0.257 C 
ATOM      9  O   UNL     1      -9.969  15.258  65.396  0.00  0.00    -0.272 OA
ENDROOT
BRANCH   1  10
ATOM     10  C   UNL     1     -11.509  15.502  68.159  0.00  0.00    +0.017 C 
ATOM     11  C   UNL     1     -11.916  14.088  67.451  0.00  0.00    +0.001 C 
BRANCH  10  12
ATOM     12  C   UNL     1     -11.312  14.808  69.624  0.00  0.00    +0.001 C 
BRANCH  12  14
ATOM     13  C   UNL     1     -11.867  16.022  71.584  0.00  0.00    +0.000 C 
ATOM     14  C   UNL     1     -12.342  15.575  70.432  0.00  0.00    +0.000 C 
ENDBRANCH  12  14
ENDBRANCH  10  12
ENDBRANCH   1  10
BRANCH   1  15
ATOM     15  C   UNL     1      -9.426  14.073  68.126  0.00  0.00    +0.018 C 
ATOM     16  C   UNL     1      -8.296  13.531  67.347  0.00  0.00    +0.001 C 
ENDBRANCH   1  15
TORSDOF 4
ENDMDL
MODEL 5
REMARK VINA RESULT:      -4.7      2.050      2.526
REMARK  Name = 
REMARK  4 active torsions:
REMARK  status: ('A' for Active; 'I' for Inactive)
REMARK    1  A    between atoms: C_2  and  C_3
REMARK    2  A    between atoms: C_3  and  C_4
REMARK    3  A    between atoms: C_4  and  C_6
REMARK    4  A    between atoms: C_6  and  C_7
REMARK                            x       y       z     vdW  Elec       q    Type
REMARK                         _______ _______ _______ _____ _____    ______ ____
ROOT
ATOM      1  C   UNL     1      -9.379  15.928  67.805  0.00  0.00    +0.141 C 
ATOM      2  C   UNL     1      -8.556  16.438  66.661  0.00  0.00    +0.257 C 
ATOM      3  O   UNL     1      -7.344  16.078  66.606  0.00  0.00    -0.272 OA
ATOM      4  N   UNL     1      -9.288  16.879  65.521  0.00  0.00    -0.125 NA
ATOM      5  C   UNL     1     -10.636  16.410  65.377  0.00  0.00    +0.352 C 
ATOM      6  O   UNL     1     -11.250  16.760  64.342  0.00  0.00    -0.248 OA
ATOM      7  N   UNL     1     -10.914  15.191  66.080  0.00  0.00    -0.125 NA
ATOM      8  C   UNL     1     -10.191  14.840  67.274  0.00  0.00    +0.257 C 
ATOM      9  O   UNL     1     -10.756  13.944  67.972  0.00  0.00    -0.272 OA
ENDROOT
BRANCH   1  10
ATOM     10  C   UNL     1     -10.473  17.102  68.074  0.00  0.00    +0.017 C 
ATOM     11  C   UNL     1     -10.848  16.604  69.583  0.00  0.00    +0.001 C 
BRANCH  10  12
ATOM     12  C   UNL     1      -9.331  18.139  68.609  0.00  0.00    +0.001 C 
BRANCH  12  14
ATOM     13  C   UNL     1     -10.483  19.652  67.193  0.00  0.00    +0.000 C 
ATOM     14  C   UNL     1     -10.054  19.461  68.430  0.00  0.00    +0.000 C 
ENDBRANCH  12  14
ENDBRANCH  10  12
ENDBRANCH   1  10
BRANCH   1  15
ATOM     15  C   UNL     1      -8.529  15.745  68.947  0.00  0.00    +0.018 C 
ATOM     16  C   UNL     1      -7.804  14.469  69.104  0.00  0.00    +0.001 C 
ENDBRANCH   1  15
TORSDOF 4
ENDMDL
MODEL 6
REMARK VINA RESULT:      -4.6      2.587      4.514
REMARK  Name = 
REMARK  4 active torsions:
REMARK  status: ('A' for Active; 'I' for Inactive)
REMARK    1  A    between atoms: C_2  and  C_3
REMARK    2  A    between atoms: C_3  and  C_4
REMARK    3  A    between atoms: C_4  and  C_6
REMARK    4  A    between atoms: C_6  and  C_7
REMARK                            x       y       z     vdW  Elec       q    Type
REMARK                         _______ _______ _______ _____ _____    ______ ____
ROOT
ATOM      1  C   UNL     1      -9.736  17.828  67.051  0.00  0.00    +0.141 C 
ATOM      2  C   UNL     1     -10.516  16.688  67.632  0.00  0.00    +0.257 C 
ATOM      3  O   UNL     1     -11.185  16.913  68.683  0.00  0.00    -0.272 OA
ATOM      4  N   UNL     1     -10.809  15.619  66.738  0.00  0.00    -0.125 NA
ATOM      5  C   UNL     1     -10.746  15.897  65.331  0.00  0.00    +0.352 C 
ATOM      6  O   UNL     1     -11.061  14.964  64.555  0.00  0.00    -0.248 OA
ATOM      7  N   UNL     1     -10.901  17.283  64.997  0.00  0.00    -0.125 NA
ATOM      8  C   UNL     1     -10.510  18.318  65.917  0.00  0.00    +0.257 C 
ATOM      9  O   UNL     1     -10.373  19.459  65.379  0.00  0.00    -0.272 OA
ENDROOT
BRANCH   1  10
ATOM     10  C   UNL     1      -8.453  17.123  66.341  0.00  0.00    +0.017 C 
ATOM     11  C   UNL     1      -7.572  18.494  66.246  0.00  0.00    +0.001 C 
BRANCH  10  12
ATOM     12  C   UNL     1      -7.801  16.703  67.777  0.00  0.00    +0.001 C 
BRANCH  12  14
ATOM     13  C   UNL     1      -7.441  14.385  67.433  0.00  0.00    +0.000 C 
ATOM     14  C   UNL     1      -6.879  15.580  67.343  0.00  0.00    +0.000 C 
ENDBRANCH  12  14
ENDBRANCH  10  12
ENDBRANCH   1  10
BRANCH   1  15
ATOM     15  C   UNL     1      -9.322  18.701  68.112  0.00  0.00    +0.018 C 
ATOM     16  C   UNL     1     -10.087  19.937  68.364  0.00  0.00    +0.001 C 
ENDBRANCH   1  15
TORSDOF 4
ENDMDL
MODEL 7
REMARK VINA RESULT:      -4.5      2.467      3.988
REMARK  Name = 
REMARK  4 active torsions:
REMARK  status: ('A' for Active; 'I' for Inactive)
REMARK    1  A    between atoms: C_2  and  C_3
REMARK    2  A    between atoms: C_3  and  C_4
REMARK    3  A    between atoms: C_4  and  C_6
REMARK    4  A    between atoms: C_6  and  C_7
REMARK                            x       y       z     vdW  Elec       q    Type
REMARK                         _______ _______ _______ _____ _____    ______ ____
ROOT
ATOM      1  C   UNL     1      -9.511  15.960  67.306  0.00  0.00    +0.141 C 
ATOM      2  C   UNL     1      -9.190  15.417  68.665  0.00  0.00    +0.257 C 
ATOM      3  O   UNL     1      -7.992  15.510  69.064  0.00  0.00    -0.272 OA
ATOM      4  N   UNL     1     -10.295  15.278  69.552  0.00  0.00    -0.125 NA
ATOM      5  C   UNL     1     -11.475  16.042  69.265  0.00  0.00    +0.352 C 
ATOM      6  O   UNL     1     -12.420  15.953  70.084  0.00  0.00    -0.248 OA
ATOM      7  N   UNL     1     -11.243  17.204  68.458  0.00  0.00    -0.125 NA
ATOM      8  C   UNL     1     -10.152  17.252  67.520  0.00  0.00    +0.257 C 
ATOM      9  O   UNL     1     -10.266  18.163  66.646  0.00  0.00    -0.272 OA
ENDROOT
BRANCH   1  10
ATOM     10  C   UNL     1     -10.735  15.028  66.775  0.00  0.00    +0.017 C 
ATOM     11  C   UNL     1     -10.576  15.462  65.209  0.00  0.00    +0.001 C 
BRANCH  10  12
ATOM     12  C   UNL     1      -9.762  13.729  66.601  0.00  0.00    +0.001 C 
BRANCH  12  14
ATOM     13  C   UNL     1     -11.661  12.605  67.470  0.00  0.00    +0.000 C 
ATOM     14  C   UNL     1     -10.796  12.627  66.468  0.00  0.00    +0.000 C 
ENDBRANCH  12  14
ENDBRANCH  10  12
ENDBRANCH   1  10
BRANCH   1  15
ATOM     15  C   UNL     1      -8.357  15.823  66.463  0.00  0.00    +0.018 C 
ATOM     16  C   UNL     1      -7.435  16.966  66.320  0.00  0.00    +0.001 C 
ENDBRANCH   1  15
TORSDOF 4
ENDMDL
MODEL 8
REMARK VINA RESULT:      -4.5      2.567      4.763
REMARK  Name = 
REMARK  4 active torsions:
REMARK  status: ('A' for Active; 'I' for Inactive)
REMARK    1  A    between atoms: C_2  and  C_3
REMARK    2  A    between atoms: C_3  and  C_4
REMARK    3  A    between atoms: C_4  and  C_6
REMARK    4  A    between atoms: C_6  and  C_7
REMARK                            x       y       z     vdW  Elec       q    Type
REMARK                         _______ _______ _______ _____ _____    ______ ____
ROOT
ATOM      1  C   UNL     1     -10.468  13.890  66.387  0.00  0.00    +0.141 C 
ATOM      2  C   UNL     1      -9.552  12.772  66.784  0.00  0.00    +0.257 C 
ATOM      3  O   UNL     1      -8.338  13.059  66.999  0.00  0.00    -0.272 OA
ATOM      4  N   UNL     1     -10.186  11.617  67.325  0.00  0.00    -0.125 NA
ATOM      5  C   UNL     1     -11.514  11.772  67.844  0.00  0.00    +0.352 C 
ATOM      6  O   UNL     1     -12.039  10.762  68.369  0.00  0.00    -0.248 OA
ATOM      7  N   UNL     1     -11.846  13.115  68.224  0.00  0.00    -0.125 NA
ATOM      8  C   UNL     1     -11.226  14.244  67.581  0.00  0.00    +0.257 C 
ATOM      9  O   UNL     1     -11.845  15.337  67.755  0.00  0.00    -0.272 OA
ENDROOT
BRANCH   1  10
ATOM     10  C   UNL     1     -11.586  13.183  65.440  0.00  0.00    +0.017 C 
ATOM     11  C   UNL     1     -12.131  14.581  64.795  0.00  0.00    +0.001 C 
BRANCH  10  12
ATOM     12  C   UNL     1     -10.513  12.946  64.233  0.00  0.00    +0.001 C 
BRANCH  12  14
ATOM     13  C   UNL     1     -10.182  10.649  63.747  0.00  0.00    +0.000 C 
ATOM     14  C   UNL     1     -11.042  11.650  63.646  0.00  0.00    +0.000 C 
ENDBRANCH  12  14
ENDBRANCH  10  12
ENDBRANCH   1  10
BRANCH   1  15
ATOM     15  C   UNL     1      -9.718  14.871  65.655  0.00  0.00    +0.018 C 
ATOM     16  C   UNL     1      -9.089  15.987  66.387  0.00  0.00    +0.001 C 
ENDBRANCH   1  15
TORSDOF 4
ENDMDL
MODEL 9
REMARK VINA RESULT:      -4.5      2.495      4.182
REMARK  Name = 
REMARK  4 active torsions:
REMARK  status: ('A' for Active; 'I' for Inactive)
REMARK    1  A    between atoms: C_2  and  C_3
REMARK    2  A    between atoms: C_3  and  C_4
REMARK    3  A    between atoms: C_4  and  C_6
REMARK    4  A    between atoms: C_6  and  C_7
REMARK                            x       y       z     vdW  Elec       q    Type
REMARK                         _______ _______ _______ _____ _____    ______ ____
ROOT
ATOM      1  C   UNL     1      -9.699  16.583  67.564  0.00  0.00    +0.141 C 
ATOM      2  C   UNL     1     -10.100  17.885  66.939  0.00  0.00    +0.257 C 
ATOM      3  O   UNL     1     -10.988  18.568  67.528  0.00  0.00    -0.272 OA
ATOM      4  N   UNL     1      -9.159  18.451  66.032  0.00  0.00    -0.125 NA
ATOM      5  C   UNL     1      -7.798  18.006  66.126  0.00  0.00    +0.352 C 
ATOM      6  O   UNL     1      -6.969  18.553  65.361  0.00  0.00    -0.248 OA
ATOM      7  N   UNL     1      -7.444  17.458  67.404  0.00  0.00    -0.125 NA
ATOM      8  C   UNL     1      -8.431  16.826  68.240  0.00  0.00    +0.257 C 
ATOM      9  O   UNL     1      -7.938  16.094  69.151  0.00  0.00    -0.272 OA
ENDROOT
BRANCH   1  10
ATOM     10  C   UNL     1      -9.269  15.644  66.307  0.00  0.00    +0.017 C 
ATOM     11  C   UNL     1      -9.318  14.246  67.150  0.00  0.00    +0.001 C 
BRANCH  10  12
ATOM     12  C   UNL     1     -10.815  15.492  65.804  0.00  0.00    +0.001 C 
BRANCH  12  14
ATOM     13  C   UNL     1     -11.864  13.852  64.449  0.00  0.00    +0.000 C 
ATOM     14  C   UNL     1     -10.698  14.261  64.924  0.00  0.00    +0.000 C 
ENDBRANCH  12  14
ENDBRANCH  10  12
ENDBRANCH   1  10
BRANCH   1  15
ATOM     15  C   UNL     1     -10.827  16.030  68.258  0.00  0.00    +0.018 C 
ATOM     16  C   UNL     1     -10.975  16.285  69.704  0.00  0.00    +0.001 C 
ENDBRANCH   1  15
TORSDOF 4
ENDMDL
