MODEL 1
REMARK VINA RESULT:      -5.5      0.000      0.000
REMARK  Name = 
REMARK  9 active torsions:
REMARK  status: ('A' for Active; 'I' for Inactive)
REMARK    1  A    between atoms: O_2  and  C_3
REMARK    2  A    between atoms: C_3  and  C_4
REMARK    3  A    between atoms: C_4  and  C_5
REMARK    4  A    between atoms: C_8  and  O_9
REMARK    5  A    between atoms: O_9  and  C_10
REMARK    6  A    between atoms: C_10  and  C_11
REMARK    7  A    between atoms: C_11  and  C_13
REMARK    8  A    between atoms: C_13  and  N_14
REMARK    9  A    between atoms: N_14  and  C_15
REMARK                            x       y       z     vdW  Elec       q    Type
REMARK                         _______ _______ _______ _____ _____    ______ ____
ROOT
ATOM      1  C   UNL     1     -12.592  13.023  71.262  0.00  0.00    -0.019 A 
ATOM      2  C   UNL     1     -12.372  11.725  70.858  0.00  0.00    -0.001 A 
ATOM      3  C   UNL     1     -11.888  11.449  69.586  0.00  0.00    +0.037 A 
ATOM      4  C   UNL     1     -11.749  12.448  68.664  0.00  0.00    +0.139 A 
ATOM      5  C   UNL     1     -11.630  13.737  69.150  0.00  0.00    +0.037 A 
ATOM      6  C   UNL     1     -12.033  14.001  70.453  0.00  0.00    -0.001 A 
ENDROOT
BRANCH   4   7
ATOM      7  O   UNL     1     -12.056  12.244  67.317  0.00  0.00    -0.473 OA
BRANCH   7   8
ATOM      8  C   UNL     1     -11.173  12.905  66.414  0.00  0.00    +0.240 C 
BRANCH   8   9
ATOM      9  C   UNL     1     -12.071  14.246  65.937  0.00  0.00    +0.213 C 
ATOM     10  O   UNL     1     -12.896  13.404  64.936  0.00  0.00    -0.218 OA
BRANCH   9  11
ATOM     11  C   UNL     1     -10.963  14.636  64.734  0.00  0.00    +0.125 C 
BRANCH  11  12
ATOM     12  N   UNL     1     -10.696  16.021  64.944  0.00  0.00    -0.217 NA
BRANCH  12  13
ATOM     13  C   UNL     1     -10.093  16.382  66.181  0.00  0.00    +0.073 C 
ATOM     14  C   UNL     1      -8.652  15.954  66.201  0.00  0.00    +0.019 C 
ATOM     15  C   UNL     1     -10.205  17.883  66.317  0.00  0.00    +0.019 C 
ENDBRANCH  12  13
ENDBRANCH  11  12
ENDBRANCH   9  11
ENDBRANCH   8   9
ENDBRANCH   7   8
ENDBRANCH   4   7
BRANCH   1  16
ATOM     16  C   UNL     1     -13.743  13.314  72.176  0.00  0.00    +0.058 C 
BRANCH  16  17
ATOM     17  C   UNL     1     -13.773  14.782  72.497  0.00  0.00    +0.147 C 
BRANCH  17  19
ATOM     18  C   UNL     1     -12.446  16.024  73.726  0.00  0.00    +0.174 C 
ATOM     19  O   UNL     1     -13.097  15.005  73.689  0.00  0.00    -0.351 OA
ENDBRANCH  17  19
ENDBRANCH  16  17
ENDBRANCH   1  16
TORSDOF 9
ENDMDL
MODEL 2
REMARK VINA RESULT:      -5.4      2.024      3.114
REMARK  Name = 
REMARK  9 active torsions:
REMARK  status: ('A' for Active; 'I' for Inactive)
REMARK    1  A    between atoms: O_2  and  C_3
REMARK    2  A    between atoms: C_3  and  C_4
REMARK    3  A    between atoms: C_4  and  C_5
REMARK    4  A    between atoms: C_8  and  O_9
REMARK    5  A    between atoms: O_9  and  C_10
REMARK    6  A    between atoms: C_10  and  C_11
REMARK    7  A    between atoms: C_11  and  C_13
REMARK    8  A    between atoms: C_13  and  N_14
REMARK    9  A    between atoms: N_14  and  C_15
REMARK                            x       y       z     vdW  Elec       q    Type
REMARK                         _______ _______ _______ _____ _____    ______ ____
ROOT
ATOM      1  C   UNL     1     -12.448  14.824  70.536  0.00  0.00    -0.019 A 
ATOM      2  C   UNL     1     -12.206  13.496  70.261  0.00  0.00    -0.001 A 
ATOM      3  C   UNL     1     -11.801  13.094  68.995  0.00  0.00    +0.037 A 
ATOM      4  C   UNL     1     -11.763  13.988  67.962  0.00  0.00    +0.139 A 
ATOM      5  C   UNL     1     -11.662  15.326  68.294  0.00  0.00    +0.037 A 
ATOM      6  C   UNL     1     -11.984  15.721  69.587  0.00  0.00    -0.001 A 
ENDROOT
BRANCH   4   7
ATOM      7  O   UNL     1     -12.153  13.625  66.671  0.00  0.00    -0.473 OA
BRANCH   7   8
ATOM      8  C   UNL     1     -11.749  14.548  65.662  0.00  0.00    +0.240 C 
BRANCH   8   9
ATOM      9  C   UNL     1     -12.171  13.749  64.243  0.00  0.00    +0.213 C 
ATOM     10  O   UNL     1     -12.859  12.607  65.027  0.00  0.00    -0.218 OA
BRANCH   9  11
ATOM     11  C   UNL     1     -10.723  12.895  64.221  0.00  0.00    +0.125 C 
BRANCH  11  12
ATOM     12  N   UNL     1     -11.124  11.534  64.071  0.00  0.00    -0.217 NA
BRANCH  12  13
ATOM     13  C   UNL     1     -10.311  10.550  64.696  0.00  0.00    +0.073 C 
ATOM     14  C   UNL     1      -9.361   9.950  63.697  0.00  0.00    +0.019 C 
ATOM     15  C   UNL     1      -9.551  11.232  65.811  0.00  0.00    +0.019 C 
ENDBRANCH  12  13
ENDBRANCH  11  12
ENDBRANCH   9  11
ENDBRANCH   8   9
ENDBRANCH   7   8
ENDBRANCH   4   7
BRANCH   1  16
ATOM     16  C   UNL     1     -13.545  15.179  71.492  0.00  0.00    +0.058 C 
BRANCH  16  17
ATOM     17  C   UNL     1     -13.303  14.499  72.811  0.00  0.00    +0.147 C 
BRANCH  17  19
ATOM     18  C   UNL     1     -12.449  15.711  74.427  0.00  0.00    +0.174 C 
ATOM     19  O   UNL     1     -12.202  15.074  73.429  0.00  0.00    -0.351 OA
ENDBRANCH  17  19
ENDBRANCH  16  17
ENDBRANCH   1  16
TORSDOF 9
ENDMDL
MODEL 3
REMARK VINA RESULT:      -5.4      2.083      3.916
REMARK  Name = 
REMARK  9 active torsions:
REMARK  status: ('A' for Active; 'I' for Inactive)
REMARK    1  A    between atoms: O_2  and  C_3
REMARK    2  A    between atoms: C_3  and  C_4
REMARK    3  A    between atoms: C_4  and  C_5
REMARK    4  A    between atoms: C_8  and  O_9
REMARK    5  A    between atoms: O_9  and  C_10
REMARK    6  A    between atoms: C_10  and  C_11
REMARK    7  A    between atoms: C_11  and  C_13
REMARK    8  A    between atoms: C_13  and  N_14
REMARK    9  A    between atoms: N_14  and  C_15
REMARK                            x       y       z     vdW  Elec       q    Type
REMARK                         _______ _______ _______ _____ _____    ______ ____
ROOT
ATOM      1  C   UNL     1     -10.370  15.876  69.609  0.00  0.00    -0.019 A 
ATOM      2  C   UNL     1      -9.207  15.215  69.277  0.00  0.00    -0.001 A 
ATOM      3  C   UNL     1      -8.781  15.146  67.957  0.00  0.00    +0.037 A 
ATOM      4  C   UNL     1      -9.572  15.615  66.946  0.00  0.00    +0.139 A 
ATOM      5  C   UNL     1     -10.528  16.556  67.283  0.00  0.00    +0.037 A 
ATOM      6  C   UNL     1     -10.896  16.689  68.616  0.00  0.00    -0.001 A 
ENDROOT
BRANCH   4   7
ATOM      7  O   UNL     1      -9.662  14.948  65.723  0.00  0.00    -0.473 OA
BRANCH   7   8
ATOM      8  C   UNL     1     -10.856  15.227  64.996  0.00  0.00    +0.240 C 
BRANCH   8   9
ATOM      9  C   UNL     1     -11.379  13.693  64.545  0.00  0.00    +0.213 C 
ATOM     10  O   UNL     1     -12.546  14.276  63.716  0.00  0.00    -0.218 OA
BRANCH   9  11
ATOM     11  C   UNL     1     -12.370  13.566  65.897  0.00  0.00    +0.125 C 
BRANCH  11  12
ATOM     12  N   UNL     1     -12.072  12.275  66.426  0.00  0.00    -0.217 NA
BRANCH  12  13
ATOM     13  C   UNL     1     -11.059  12.204  67.421  0.00  0.00    +0.073 C 
ATOM     14  C   UNL     1     -11.676  12.157  68.790  0.00  0.00    +0.019 C 
ATOM     15  C   UNL     1     -10.253  10.952  67.156  0.00  0.00    +0.019 C 
ENDBRANCH  12  13
ENDBRANCH  11  12
ENDBRANCH   9  11
ENDBRANCH   8   9
ENDBRANCH   7   8
ENDBRANCH   4   7
BRANCH   1  16
ATOM     16  C   UNL     1     -11.213  15.344  70.726  0.00  0.00    +0.058 C 
BRANCH  16  17
ATOM     17  C   UNL     1     -12.667  15.480  70.369  0.00  0.00    +0.147 C 
BRANCH  17  19
ATOM     18  C   UNL     1     -14.372  15.145  71.708  0.00  0.00    +0.174 C 
ATOM     19  O   UNL     1     -13.389  15.820  71.505  0.00  0.00    -0.351 OA
ENDBRANCH  17  19
ENDBRANCH  16  17
ENDBRANCH   1  16
TORSDOF 9
ENDMDL
MODEL 4
REMARK VINA RESULT:      -5.3      4.580      6.905
REMARK  Name = 
REMARK  9 active torsions:
REMARK  status: ('A' for Active; 'I' for Inactive)
REMARK    1  A    between atoms: O_2  and  C_3
REMARK    2  A    between atoms: C_3  and  C_4
REMARK    3  A    between atoms: C_4  and  C_5
REMARK    4  A    between atoms: C_8  and  O_9
REMARK    5  A    between atoms: O_9  and  C_10
REMARK    6  A    between atoms: C_10  and  C_11
REMARK    7  A    between atoms: C_11  and  C_13
REMARK    8  A    between atoms: C_13  and  N_14
REMARK    9  A    between atoms: N_14  and  C_15
REMARK                            x       y       z     vdW  Elec       q    Type
REMARK                         _______ _______ _______ _____ _____    ______ ____
ROOT
ATOM      1  C   UNL     1      -7.776  19.639  68.274  0.00  0.00    -0.019 A 
ATOM      2  C   UNL     1      -7.726  19.936  66.929  0.00  0.00    -0.001 A 
ATOM      3  C   UNL     1      -8.784  19.612  66.090  0.00  0.00    +0.037 A 
ATOM      4  C   UNL     1      -9.836  18.874  66.553  0.00  0.00    +0.139 A 
ATOM      5  C   UNL     1     -10.055  18.881  67.918  0.00  0.00    +0.037 A 
ATOM      6  C   UNL     1      -9.026  19.288  68.759  0.00  0.00    -0.001 A 
ENDROOT
BRANCH   4   7
ATOM      7  O   UNL     1     -10.443  17.895  65.763  0.00  0.00    -0.473 OA
BRANCH   7   8
ATOM      8  C   UNL     1     -10.402  16.586  66.326  0.00  0.00    +0.240 C 
BRANCH   8   9
ATOM      9  C   UNL     1     -10.489  15.598  64.968  0.00  0.00    +0.213 C 
ATOM     10  O   UNL     1     -11.360  16.625  64.209  0.00  0.00    -0.218 OA
BRANCH   9  11
ATOM     11  C   UNL     1     -11.863  14.820  65.545  0.00  0.00    +0.125 C 
BRANCH  11  12
ATOM     12  N   UNL     1     -11.351  13.726  66.302  0.00  0.00    -0.217 NA
BRANCH  12  13
ATOM     13  C   UNL     1     -11.615  12.419  65.807  0.00  0.00    +0.073 C 
ATOM     14  C   UNL     1     -12.555  12.487  64.636  0.00  0.00    +0.019 C 
ATOM     15  C   UNL     1     -10.291  11.817  65.394  0.00  0.00    +0.019 C 
ENDBRANCH  12  13
ENDBRANCH  11  12
ENDBRANCH   9  11
ENDBRANCH   8   9
ENDBRANCH   7   8
ENDBRANCH   4   7
BRANCH   1  16
ATOM     16  C   UNL     1      -6.514  19.245  68.978  0.00  0.00    +0.058 C 
BRANCH  16  17
ATOM     17  C   UNL     1      -5.889  20.459  69.608  0.00  0.00    +0.147 C 
BRANCH  17  19
ATOM     18  C   UNL     1      -5.469  19.898  71.686  0.00  0.00    +0.174 C 
ATOM     19  O   UNL     1      -6.221  20.500  70.955  0.00  0.00    -0.351 OA
ENDBRANCH  17  19
ENDBRANCH  16  17
ENDBRANCH   1  16
TORSDOF 9
ENDMDL
MODEL 5
REMARK VINA RESULT:      -5.2      1.971      3.199
REMARK  Name = 
REMARK  9 active torsions:
REMARK  status: ('A' for Active; 'I' for Inactive)
REMARK    1  A    between atoms: O_2  and  C_3
REMARK    2  A    between atoms: C_3  and  C_4
REMARK    3  A    between atoms: C_4  and  C_5
REMARK    4  A    between atoms: C_8  and  O_9
REMARK    5  A    between atoms: O_9  and  C_10
REMARK    6  A    between atoms: C_10  and  C_11
REMARK    7  A    between atoms: C_11  and  C_13
REMARK    8  A    between atoms: C_13  and  N_14
REMARK    9  A    between atoms: N_14  and  C_15
REMARK                            x       y       z     vdW  Elec       q    Type
REMARK                         _______ _______ _______ _____ _____    ______ ____
ROOT
ATOM      1  C   UNL     1     -12.876  14.355  71.216  0.00  0.00    -0.019 A 
ATOM      2  C   UNL     1     -12.758  15.525  70.498  0.00  0.00    -0.001 A 
ATOM      3  C   UNL     1     -11.994  15.574  69.339  0.00  0.00    +0.037 A 
ATOM      4  C   UNL     1     -11.238  14.502  68.960  0.00  0.00    +0.139 A 
ATOM      5  C   UNL     1     -11.613  13.264  69.452  0.00  0.00    +0.037 A 
ATOM      6  C   UNL     1     -12.448  13.211  70.561  0.00  0.00    -0.001 A 
ENDROOT
BRANCH   4   7
ATOM      7  O   UNL     1      -9.967  14.666  68.405  0.00  0.00    -0.473 OA
BRANCH   7   8
ATOM      8  C   UNL     1      -9.802  15.884  67.682  0.00  0.00    +0.240 C 
BRANCH   8   9
ATOM      9  C   UNL     1      -9.033  15.375  66.275  0.00  0.00    +0.213 C 
ATOM     10  O   UNL     1      -8.744  16.831  65.843  0.00  0.00    -0.218 OA
BRANCH   9  11
ATOM     11  C   UNL     1     -10.475  15.379  65.411  0.00  0.00    +0.125 C 
BRANCH  11  12
ATOM     12  N   UNL     1     -10.530  14.082  64.821  0.00  0.00    -0.217 NA
BRANCH  12  13
ATOM     13  C   UNL     1     -11.798  13.439  64.791  0.00  0.00    +0.073 C 
ATOM     14  C   UNL     1     -12.036  12.819  63.443  0.00  0.00    +0.019 C 
ATOM     15  C   UNL     1     -11.793  12.381  65.871  0.00  0.00    +0.019 C 
ENDBRANCH  12  13
ENDBRANCH  11  12
ENDBRANCH   9  11
ENDBRANCH   8   9
ENDBRANCH   7   8
ENDBRANCH   4   7
BRANCH   1  16
ATOM     16  C   UNL     1     -12.969  14.426  72.708  0.00  0.00    +0.058 C 
BRANCH  16  17
ATOM     17  C   UNL     1     -12.078  15.525  73.217  0.00  0.00    +0.147 C 
BRANCH  17  19
ATOM     18  C   UNL     1     -12.471  16.161  75.279  0.00  0.00    +0.174 C 
ATOM     19  O   UNL     1     -12.783  16.308  74.120  0.00  0.00    -0.351 OA
ENDBRANCH  17  19
ENDBRANCH  16  17
ENDBRANCH   1  16
TORSDOF 9
ENDMDL
MODEL 6
REMARK VINA RESULT:      -5.2      3.130      5.726
REMARK  Name = 
REMARK  9 active torsions:
REMARK  status: ('A' for Active; 'I' for Inactive)
REMARK    1  A    between atoms: O_2  and  C_3
REMARK    2  A    between atoms: C_3  and  C_4
REMARK    3  A    between atoms: C_4  and  C_5
REMARK    4  A    between atoms: C_8  and  O_9
REMARK    5  A    between atoms: O_9  and  C_10
REMARK    6  A    between atoms: C_10  and  C_11
REMARK    7  A    between atoms: C_11  and  C_13
REMARK    8  A    between atoms: C_13  and  N_14
REMARK    9  A    between atoms: N_14  and  C_15
REMARK                            x       y       z     vdW  Elec       q    Type
REMARK                         _______ _______ _______ _____ _____    ______ ____
ROOT
ATOM      1  C   UNL     1     -11.046  13.551  67.277  0.00  0.00    -0.019 A 
ATOM      2  C   UNL     1      -9.935  14.308  66.976  0.00  0.00    -0.001 A 
ATOM      3  C   UNL     1      -9.795  15.596  67.476  0.00  0.00    +0.037 A 
ATOM      4  C   UNL     1     -10.816  16.188  68.164  0.00  0.00    +0.139 A 
ATOM      5  C   UNL     1     -11.746  15.349  68.751  0.00  0.00    +0.037 A 
ATOM      6  C   UNL     1     -11.831  14.033  68.313  0.00  0.00    -0.001 A 
ENDROOT
BRANCH   4   7
ATOM      7  O   UNL     1     -11.115  17.542  68.001  0.00  0.00    -0.473 OA
BRANCH   7   8
ATOM      8  C   UNL     1      -9.984  18.404  68.110  0.00  0.00    +0.240 C 
BRANCH   8   9
ATOM      9  C   UNL     1     -10.339  19.618  67.001  0.00  0.00    +0.213 C 
ATOM     10  O   UNL     1     -10.304  18.622  65.819  0.00  0.00    -0.218 OA
BRANCH   9  11
ATOM     11  C   UNL     1      -8.711  19.976  66.780  0.00  0.00    +0.125 C 
BRANCH  11  12
ATOM     12  N   UNL     1      -8.218  18.886  66.004  0.00  0.00    -0.217 NA
BRANCH  12  13
ATOM     13  C   UNL     1      -6.840  18.565  66.144  0.00  0.00    +0.073 C 
ATOM     14  C   UNL     1      -6.672  17.095  66.410  0.00  0.00    +0.019 C 
ATOM     15  C   UNL     1      -6.152  18.955  64.856  0.00  0.00    +0.019 C 
ENDBRANCH  12  13
ENDBRANCH  11  12
ENDBRANCH   9  11
ENDBRANCH   8   9
ENDBRANCH   7   8
ENDBRANCH   4   7
BRANCH   1  16
ATOM     16  C   UNL     1     -11.589  12.616  66.241  0.00  0.00    +0.058 C 
BRANCH  16  17
ATOM     17  C   UNL     1     -12.614  13.331  65.405  0.00  0.00    +0.147 C 
BRANCH  17  19
ATOM     18  C   UNL     1     -12.415  12.058  63.629  0.00  0.00    +0.174 C 
ATOM     19  O   UNL     1     -13.167  12.440  64.496  0.00  0.00    -0.351 OA
ENDBRANCH  17  19
ENDBRANCH  16  17
ENDBRANCH   1  16
TORSDOF 9
ENDMDL
MODEL 7
REMARK VINA RESULT:      -5.2      2.935      4.073
REMARK  Name = 
REMARK  9 active torsions:
REMARK  status: ('A' for Active; 'I' for Inactive)
REMARK    1  A    between atoms: O_2  and  C_3
REMARK    2  A    between atoms: C_3  and  C_4
REMARK    3  A    between atoms: C_4  and  C_5
REMARK    4  A    between atoms: C_8  and  O_9
REMARK    5  A    between atoms: O_9  and  C_10
REMARK    6  A    between atoms: C_10  and  C_11
REMARK    7  A    between atoms: C_11  and  C_13
REMARK    8  A    between atoms: C_13  and  N_14
REMARK    9  A    between atoms: N_14  and  C_15
REMARK                            x       y       z     vdW  Elec       q    Type
REMARK                         _______ _______ _______ _____ _____    ______ ____
ROOT
ATOM      1  C   UNL     1     -11.950  11.649  70.034  0.00  0.00    -0.019 A 
ATOM      2  C   UNL     1     -11.330  11.290  68.857  0.00  0.00    -0.001 A 
ATOM      3  C   UNL     1     -11.161  12.213  67.833  0.00  0.00    +0.037 A 
ATOM      4  C   UNL     1     -11.722  13.455  67.918  0.00  0.00    +0.139 A 
ATOM      5  C   UNL     1     -12.023  13.923  69.184  0.00  0.00    +0.037 A 
ATOM      6  C   UNL     1     -12.109  13.012  70.230  0.00  0.00    -0.001 A 
ENDROOT
BRANCH   4   7
ATOM      7  O   UNL     1     -12.285  14.078  66.802  0.00  0.00    -0.473 OA
BRANCH   7   8
ATOM      8  C   UNL     1     -12.509  13.202  65.699  0.00  0.00    +0.240 C 
BRANCH   8   9
ATOM      9  C   UNL     1     -11.481  13.823  64.522  0.00  0.00    +0.213 C 
ATOM     10  O   UNL     1     -12.567  14.797  64.010  0.00  0.00    -0.218 OA
BRANCH   9  11
ATOM     11  C   UNL     1     -11.960  12.662  63.404  0.00  0.00    +0.125 C 
BRANCH  11  12
ATOM     12  N   UNL     1     -11.327  11.465  63.854  0.00  0.00    -0.217 NA
BRANCH  12  13
ATOM     13  C   UNL     1      -9.906  11.465  63.901  0.00  0.00    +0.073 C 
ATOM     14  C   UNL     1      -9.422  10.557  64.997  0.00  0.00    +0.019 C 
ATOM     15  C   UNL     1      -9.409  10.989  62.555  0.00  0.00    +0.019 C 
ENDBRANCH  12  13
ENDBRANCH  11  12
ENDBRANCH   9  11
ENDBRANCH   8   9
ENDBRANCH   7   8
ENDBRANCH   4   7
BRANCH   1  16
ATOM     16  C   UNL     1     -12.803  10.642  70.741  0.00  0.00    +0.058 C 
BRANCH  16  17
ATOM     17  C   UNL     1     -11.931   9.572  71.337  0.00  0.00    +0.147 C 
BRANCH  17  19
ATOM     18  C   UNL     1     -13.799   8.857  72.238  0.00  0.00    +0.174 C 
ATOM     19  O   UNL     1     -12.603   8.964  72.388  0.00  0.00    -0.351 OA
ENDBRANCH  17  19
ENDBRANCH  16  17
ENDBRANCH   1  16
TORSDOF 9
ENDMDL
MODEL 8
REMARK VINA RESULT:      -5.2      2.390      3.117
REMARK  Name = 
REMARK  9 active torsions:
REMARK  status: ('A' for Active; 'I' for Inactive)
REMARK    1  A    between atoms: O_2  and  C_3
REMARK    2  A    between atoms: C_3  and  C_4
REMARK    3  A    between atoms: C_4  and  C_5
REMARK    4  A    between atoms: C_8  and  O_9
REMARK    5  A    between atoms: O_9  and  C_10
REMARK    6  A    between atoms: C_10  and  C_11
REMARK    7  A    between atoms: C_11  and  C_13
REMARK    8  A    between atoms: C_13  and  N_14
REMARK    9  A    between atoms: N_14  and  C_15
REMARK                            x       y       z     vdW  Elec       q    Type
REMARK                         _______ _______ _______ _____ _____    ______ ____
ROOT
ATOM      1  C   UNL     1     -11.916  11.398  70.100  0.00  0.00    -0.019 A 
ATOM      2  C   UNL     1     -11.473  10.451  69.203  0.00  0.00    -0.001 A 
ATOM      3  C   UNL     1     -11.235  10.785  67.876  0.00  0.00    +0.037 A 
ATOM      4  C   UNL     1     -11.562  12.023  67.403  0.00  0.00    +0.139 A 
ATOM      5  C   UNL     1     -11.666  13.043  68.332  0.00  0.00    +0.037 A 
ATOM      6  C   UNL     1     -11.818  12.713  69.673  0.00  0.00    -0.001 A 
ENDROOT
BRANCH   4   7
ATOM      7  O   UNL     1     -12.103  12.196  66.127  0.00  0.00    -0.473 OA
BRANCH   7   8
ATOM      8  C   UNL     1     -12.552  13.522  65.860  0.00  0.00    +0.240 C 
BRANCH   8   9
ATOM      9  C   UNL     1     -12.050  13.768  64.273  0.00  0.00    +0.213 C 
ATOM     10  O   UNL     1     -11.578  12.302  64.139  0.00  0.00    -0.218 OA
BRANCH   9  11
ATOM     11  C   UNL     1     -10.515  14.244  64.767  0.00  0.00    +0.125 C 
BRANCH  11  12
ATOM     12  N   UNL     1     -10.727  15.509  65.391  0.00  0.00    -0.217 NA
BRANCH  12  13
ATOM     13  C   UNL     1      -9.684  16.001  66.222  0.00  0.00    +0.073 C 
ATOM     14  C   UNL     1     -10.260  16.721  67.409  0.00  0.00    +0.019 C 
ATOM     15  C   UNL     1      -8.861  14.813  66.666  0.00  0.00    +0.019 C 
ENDBRANCH  12  13
ENDBRANCH  11  12
ENDBRANCH   9  11
ENDBRANCH   8   9
ENDBRANCH   7   8
ENDBRANCH   4   7
BRANCH   1  16
ATOM     16  C   UNL     1     -12.867  10.986  71.181  0.00  0.00    +0.058 C 
BRANCH  16  17
ATOM     17  C   UNL     1     -12.470   9.637  71.713  0.00  0.00    +0.147 C 
BRANCH  17  19
ATOM     18  C   UNL     1     -14.276   8.392  71.762  0.00  0.00    +0.174 C 
ATOM     19  O   UNL     1     -13.535   9.089  72.415  0.00  0.00    -0.351 OA
ENDBRANCH  17  19
ENDBRANCH  16  17
ENDBRANCH   1  16
TORSDOF 9
ENDMDL
MODEL 9
REMARK VINA RESULT:      -5.1      4.061      7.677
REMARK  Name = 
REMARK  9 active torsions:
REMARK  status: ('A' for Active; 'I' for Inactive)
REMARK    1  A    between atoms: O_2  and  C_3
REMARK    2  A    between atoms: C_3  and  C_4
REMARK    3  A    between atoms: C_4  and  C_5
REMARK    4  A    between atoms: C_8  and  O_9
REMARK    5  A    between atoms: O_9  and  C_10
REMARK    6  A    between atoms: C_10  and  C_11
REMARK    7  A    between atoms: C_11  and  C_13
REMARK    8  A    between atoms: C_13  and  N_14
REMARK    9  A    between atoms: N_14  and  C_15
REMARK                            x       y       z     vdW  Elec       q    Type
REMARK                         _______ _______ _______ _____ _____    ______ ____
ROOT
ATOM      1  C   UNL     1      -8.245  19.878  66.799  0.00  0.00    -0.019 A 
ATOM      2  C   UNL     1      -8.081  18.512  66.732  0.00  0.00    -0.001 A 
ATOM      3  C   UNL     1      -9.074  17.654  67.189  0.00  0.00    +0.037 A 
ATOM      4  C   UNL     1     -10.173  18.146  67.834  0.00  0.00    +0.139 A 
ATOM      5  C   UNL     1     -10.501  19.468  67.597  0.00  0.00    +0.037 A 
ATOM      6  C   UNL     1      -9.536  20.311  67.059  0.00  0.00    -0.001 A 
ENDROOT
BRANCH   4   7
ATOM      7  O   UNL     1     -10.731  17.483  68.930  0.00  0.00    -0.473 OA
BRANCH   7   8
ATOM      8  C   UNL     1     -11.306  16.218  68.612  0.00  0.00    +0.240 C 
BRANCH   8   9
ATOM      9  C   UNL     1     -10.651  15.210  69.789  0.00  0.00    +0.213 C 
ATOM     10  O   UNL     1     -10.975  13.945  68.962  0.00  0.00    -0.218 OA
BRANCH   9  11
ATOM     11  C   UNL     1     -12.122  15.092  70.594  0.00  0.00    +0.125 C 
BRANCH  11  12
ATOM     12  N   UNL     1     -11.778  15.250  71.969  0.00  0.00    -0.217 NA
BRANCH  12  13
ATOM     13  C   UNL     1     -12.744  15.872  72.808  0.00  0.00    +0.073 C 
ATOM     14  C   UNL     1     -14.130  15.447  72.411  0.00  0.00    +0.019 C 
ATOM     15  C   UNL     1     -12.444  15.454  74.229  0.00  0.00    +0.019 C 
ENDBRANCH  12  13
ENDBRANCH  11  12
ENDBRANCH   9  11
ENDBRANCH   8   9
ENDBRANCH   7   8
ENDBRANCH   4   7
BRANCH   1  16
ATOM     16  C   UNL     1      -7.051  20.739  67.073  0.00  0.00    +0.058 C 
BRANCH  16  17
ATOM     17  C   UNL     1      -6.077  19.990  67.940  0.00  0.00    +0.147 C 
BRANCH  17  19
ATOM     18  C   UNL     1      -6.205  19.991  70.129  0.00  0.00    +0.174 C 
ATOM     19  O   UNL     1      -5.937  20.651  69.152  0.00  0.00    -0.351 OA
ENDBRANCH  17  19
ENDBRANCH  16  17
ENDBRANCH   1  16
TORSDOF 9
ENDMDL
