MODEL 1
REMARK VINA RESULT:      -7.0      0.000      0.000
REMARK  Name = 
REMARK  5 active torsions:
REMARK  status: ('A' for Active; 'I' for Inactive)
REMARK    1  A    between atoms: C_4  and  C_5
REMARK    2  A    between atoms: C_15  and  C_16
REMARK    3  A    between atoms: C_16  and  C_18
REMARK    4  A    between atoms: C_19  and  C_20
REMARK    5  A    between atoms: C_20  and  C_22
REMARK                            x       y       z     vdW  Elec       q    Type
REMARK                         _______ _______ _______ _____ _____    ______ ____
ROOT
ATOM      1  C   UNL     1      -7.431  19.600  66.680  0.00  0.00    -0.009 C 
ATOM      2  C   UNL     1      -8.386  18.669  66.580  0.00  0.00    -0.045 C 
ATOM      3  C   UNL     1      -8.225  17.449  67.608  0.00  0.00    +0.018 C 
ATOM      4  C   UNL     1      -7.785  16.384  66.451  0.00  0.00    +0.004 C 
ATOM      5  C   UNL     1      -8.021  15.254  67.366  0.00  0.00    +0.001 C 
ATOM      6  C   UNL     1      -9.546  15.416  67.887  0.00  0.00    +0.004 C 
ATOM      7  C   UNL     1      -9.753  16.934  67.385  0.00  0.00    +0.004 C 
ATOM      8  C   UNL     1     -10.131  17.032  65.993  0.00  0.00    +0.000 C 
ATOM      9  C   UNL     1     -10.456  17.740  68.386  0.00  0.00    +0.001 C 
ATOM     10  C   UNL     1     -10.021  19.192  68.230  0.00  0.00    +0.004 C 
ATOM     11  C   UNL     1      -9.603  19.522  66.799  0.00  0.00    +0.022 C 
ENDROOT
BRANCH   1  21
ATOM     12  C   UNL     1      -5.307  20.744  67.035  0.00  0.00    -0.002 C 
ATOM     13  C   UNL     1      -4.965  20.241  66.183  0.00  0.00    +0.004 C 
ATOM     14  C   UNL     1      -3.578  20.361  65.363  0.00  0.00    +0.176 C 
ATOM     15  O   UNL     1      -2.803  20.742  66.616  0.00  0.00    -0.218 OA
ATOM     16  C   UNL     1      -3.264  18.768  65.567  0.00  0.00    +0.071 C 
ATOM     17  C   UNL     1      -4.491  17.967  64.826  0.00  0.00    +0.159 C 
ATOM     18  O   UNL     1      -3.598  17.620  63.646  0.00  0.00    -0.223 OA
ATOM     19  C   UNL     1      -5.189  19.216  63.993  0.00  0.00    +0.059 C 
ATOM     20  C   UNL     1      -5.880  19.930  65.064  0.00  0.00    -0.021 C 
ATOM     21  C   UNL     1      -7.151  20.109  65.321  0.00  0.00    -0.005 C 
ENDBRANCH   1  21
BRANCH   6  22
ATOM     22  C   UNL     1     -10.177  14.713  66.469  0.00  0.00    +0.022 C 
ATOM     23  C   UNL     1     -11.626  14.485  67.171  0.00  0.00    +0.005 C 
BRANCH  22  24
ATOM     24  C   UNL     1      -9.717  13.218  66.768  0.00  0.00    -0.031 C 
ATOM     25  C   UNL     1      -9.671  12.269  65.964  0.00  0.00    -0.031 C 
BRANCH  25  26
ATOM     26  C   UNL     1     -10.923  11.443  65.409  0.00  0.00    +0.022 C 
ATOM     27  C   UNL     1      -9.995  10.241  64.807  0.00  0.00    +0.005 C 
BRANCH  26  28
ATOM     28  C   UNL     1     -10.918  12.246  63.982  0.00  0.00    +0.004 C 
ATOM     29  C   UNL     1     -10.024  11.328  63.158  0.00  0.00    +0.000 C 
ATOM     30  C   UNL     1     -12.334  12.157  63.465  0.00  0.00    +0.000 C 
ENDBRANCH  26  28
ENDBRANCH  25  26
ENDBRANCH  22  24
ENDBRANCH   6  22
TORSDOF 5
ENDMDL
MODEL 2
REMARK VINA RESULT:      -6.8      2.568      3.184
REMARK  Name = 
REMARK  5 active torsions:
REMARK  status: ('A' for Active; 'I' for Inactive)
REMARK    1  A    between atoms: C_4  and  C_5
REMARK    2  A    between atoms: C_15  and  C_16
REMARK    3  A    between atoms: C_16  and  C_18
REMARK    4  A    between atoms: C_19  and  C_20
REMARK    5  A    between atoms: C_20  and  C_22
REMARK                            x       y       z     vdW  Elec       q    Type
REMARK                         _______ _______ _______ _____ _____    ______ ____
ROOT
ATOM      1  C   UNL     1      -7.353  19.665  68.076  0.00  0.00    -0.009 C 
ATOM      2  C   UNL     1      -8.042  18.689  67.475  0.00  0.00    -0.045 C 
ATOM      3  C   UNL     1      -9.204  18.053  68.377  0.00  0.00    +0.018 C 
ATOM      4  C   UNL     1      -8.409  16.645  68.608  0.00  0.00    +0.004 C 
ATOM      5  C   UNL     1      -9.642  16.001  69.094  0.00  0.00    +0.001 C 
ATOM      6  C   UNL     1     -10.744  16.213  67.926  0.00  0.00    +0.004 C 
ATOM      7  C   UNL     1      -9.930  17.339  67.107  0.00  0.00    +0.004 C 
ATOM      8  C   UNL     1      -8.951  16.790  66.196  0.00  0.00    +0.000 C 
ATOM      9  C   UNL     1     -10.812  18.421  66.660  0.00  0.00    +0.001 C 
ATOM     10  C   UNL     1      -9.992  19.700  66.556  0.00  0.00    +0.004 C 
ATOM     11  C   UNL     1      -8.520  19.424  66.255  0.00  0.00    +0.022 C 
ENDROOT
BRANCH   1  21
ATOM     12  C   UNL     1      -6.169  20.176  70.146  0.00  0.00    -0.002 C 
ATOM     13  C   UNL     1      -5.582  19.332  69.945  0.00  0.00    +0.004 C 
ATOM     14  C   UNL     1      -4.275  18.745  70.692  0.00  0.00    +0.176 C 
ATOM     15  O   UNL     1      -4.731  19.285  72.040  0.00  0.00    -0.218 OA
ATOM     16  C   UNL     1      -5.008  17.303  70.943  0.00  0.00    +0.071 C 
ATOM     17  C   UNL     1      -5.339  16.699  69.453  0.00  0.00    +0.159 C 
ATOM     18  O   UNL     1      -4.182  15.718  69.556  0.00  0.00    -0.223 OA
ATOM     19  C   UNL     1      -4.444  17.731  68.518  0.00  0.00    +0.059 C 
ATOM     20  C   UNL     1      -5.261  18.942  68.556  0.00  0.00    -0.021 C 
ATOM     21  C   UNL     1      -5.946  19.567  67.633  0.00  0.00    -0.005 C 
ENDBRANCH   1  21
BRANCH   6  22
ATOM     22  C   UNL     1     -10.132  14.910  67.017  0.00  0.00    +0.022 C 
ATOM     23  C   UNL     1     -11.499  14.818  66.142  0.00  0.00    +0.005 C 
BRANCH  22  24
ATOM     24  C   UNL     1     -10.600  13.747  68.000  0.00  0.00    -0.031 C 
ATOM     25  C   UNL     1     -10.444  12.522  67.844  0.00  0.00    -0.031 C 
BRANCH  25  26
ATOM     26  C   UNL     1     -11.271  11.586  66.846  0.00  0.00    +0.022 C 
ATOM     27  C   UNL     1     -11.071  10.250  67.766  0.00  0.00    +0.005 C 
BRANCH  26  28
ATOM     28  C   UNL     1      -9.946  11.242  65.948  0.00  0.00    +0.004 C 
ATOM     29  C   UNL     1      -9.946   9.721  66.038  0.00  0.00    +0.000 C 
ATOM     30  C   UNL     1     -10.296  11.657  64.539  0.00  0.00    +0.000 C 
ENDBRANCH  26  28
ENDBRANCH  25  26
ENDBRANCH  22  24
ENDBRANCH   6  22
TORSDOF 5
ENDMDL
MODEL 3
REMARK VINA RESULT:      -6.7      3.301      4.720
REMARK  Name = 
REMARK  5 active torsions:
REMARK  status: ('A' for Active; 'I' for Inactive)
REMARK    1  A    between atoms: C_4  and  C_5
REMARK    2  A    between atoms: C_15  and  C_16
REMARK    3  A    between atoms: C_16  and  C_18
REMARK    4  A    between atoms: C_19  and  C_20
REMARK    5  A    between atoms: C_20  and  C_22
REMARK                            x       y       z     vdW  Elec       q    Type
REMARK                         _______ _______ _______ _____ _____    ______ ____
ROOT
ATOM      1  C   UNL     1      -7.337  17.474  68.298  0.00  0.00    -0.009 C 
ATOM      2  C   UNL     1      -8.067  16.386  68.035  0.00  0.00    -0.045 C 
ATOM      3  C   UNL     1      -9.599  16.494  68.495  0.00  0.00    +0.018 C 
ATOM      4  C   UNL     1      -9.419  15.443  69.733  0.00  0.00    +0.004 C 
ATOM      5  C   UNL     1     -10.881  15.304  69.859  0.00  0.00    +0.001 C 
ATOM      6  C   UNL     1     -11.412  14.863  68.394  0.00  0.00    +0.004 C 
ATOM      7  C   UNL     1     -10.060  15.221  67.591  0.00  0.00    +0.004 C 
ATOM      8  C   UNL     1      -9.069  14.170  67.637  0.00  0.00    +0.000 C 
ATOM      9  C   UNL     1     -10.352  15.889  66.319  0.00  0.00    +0.001 C 
ATOM     10  C   UNL     1      -9.178  16.795  65.969  0.00  0.00    +0.004 C 
ATOM     11  C   UNL     1      -7.860  16.288  66.550  0.00  0.00    +0.022 C 
ENDROOT
BRANCH   1  21
ATOM     12  C   UNL     1      -5.999  19.321  67.435  0.00  0.00    -0.002 C 
ATOM     13  C   UNL     1      -5.511  19.318  68.361  0.00  0.00    +0.004 C 
ATOM     14  C   UNL     1      -4.232  20.151  68.892  0.00  0.00    +0.176 C 
ATOM     15  O   UNL     1      -4.557  21.336  67.993  0.00  0.00    -0.218 OA
ATOM     16  C   UNL     1      -5.091  20.770  70.139  0.00  0.00    +0.071 C 
ATOM     17  C   UNL     1      -5.560  19.484  71.046  0.00  0.00    +0.159 C 
ATOM     18  O   UNL     1      -4.504  19.794  72.095  0.00  0.00    -0.223 OA
ATOM     19  C   UNL     1      -4.618  18.299  70.377  0.00  0.00    +0.059 C 
ATOM     20  C   UNL     1      -5.306  18.060  69.110  0.00  0.00    -0.021 C 
ATOM     21  C   UNL     1      -5.973  17.030  68.655  0.00  0.00    -0.005 C 
ENDBRANCH   1  21
BRANCH   6  22
ATOM     22  C   UNL     1     -10.991  13.233  68.656  0.00  0.00    +0.022 C 
ATOM     23  C   UNL     1     -11.906  12.747  67.403  0.00  0.00    +0.005 C 
BRANCH  22  24
ATOM     24  C   UNL     1     -12.135  12.901  69.712  0.00  0.00    -0.031 C 
ATOM     25  C   UNL     1     -12.156  11.961  70.528  0.00  0.00    -0.031 C 
BRANCH  25  26
ATOM     26  C   UNL     1     -12.453  10.426  70.191  0.00  0.00    +0.022 C 
ATOM     27  C   UNL     1     -12.998  10.094  71.695  0.00  0.00    +0.005 C 
BRANCH  26  28
ATOM     28  C   UNL     1     -10.929   9.968  70.574  0.00  0.00    +0.004 C 
ATOM     29  C   UNL     1     -11.217   8.991  71.707  0.00  0.00    +0.000 C 
ATOM     30  C   UNL     1     -10.425   9.203  69.374  0.00  0.00    +0.000 C 
ENDBRANCH  26  28
ENDBRANCH  25  26
ENDBRANCH  22  24
ENDBRANCH   6  22
TORSDOF 5
ENDMDL
MODEL 4
REMARK VINA RESULT:      -6.7      3.962      9.097
REMARK  Name = 
REMARK  5 active torsions:
REMARK  status: ('A' for Active; 'I' for Inactive)
REMARK    1  A    between atoms: C_4  and  C_5
REMARK    2  A    between atoms: C_15  and  C_16
REMARK    3  A    between atoms: C_16  and  C_18
REMARK    4  A    between atoms: C_19  and  C_20
REMARK    5  A    between atoms: C_20  and  C_22
REMARK                            x       y       z     vdW  Elec       q    Type
REMARK                         _______ _______ _______ _____ _____    ______ ____
ROOT
ATOM      1  C   UNL     1     -10.992  11.961  66.937  0.00  0.00    -0.009 C 
ATOM      2  C   UNL     1     -10.860  13.288  67.026  0.00  0.00    -0.045 C 
ATOM      3  C   UNL     1      -9.533  13.865  66.335  0.00  0.00    +0.018 C 
ATOM      4  C   UNL     1      -8.809  14.215  67.757  0.00  0.00    +0.004 C 
ATOM      5  C   UNL     1      -7.812  15.055  67.070  0.00  0.00    +0.001 C 
ATOM      6  C   UNL     1      -8.659  16.140  66.217  0.00  0.00    +0.004 C 
ATOM      7  C   UNL     1     -10.085  15.396  66.333  0.00  0.00    +0.004 C 
ATOM      8  C   UNL     1     -10.788  15.692  67.561  0.00  0.00    +0.000 C 
ATOM      9  C   UNL     1     -10.808  15.418  65.059  0.00  0.00    +0.001 C 
ATOM     10  C   UNL     1     -11.711  14.194  64.995  0.00  0.00    +0.004 C 
ATOM     11  C   UNL     1     -12.146  13.720  66.380  0.00  0.00    +0.022 C 
ENDROOT
BRANCH   1  21
ATOM     12  C   UNL     1     -10.886   9.544  66.623  0.00  0.00    -0.002 C 
ATOM     13  C   UNL     1     -10.503   9.498  67.596  0.00  0.00    +0.004 C 
ATOM     14  C   UNL     1     -10.153   8.235  68.542  0.00  0.00    +0.176 C 
ATOM     15  O   UNL     1      -9.813   7.359  67.344  0.00  0.00    -0.218 OA
ATOM     16  C   UNL     1      -8.602   8.729  68.710  0.00  0.00    +0.071 C 
ATOM     17  C   UNL     1      -8.674  10.198  69.441  0.00  0.00    +0.159 C 
ATOM     18  O   UNL     1      -8.244   9.597  70.769  0.00  0.00    -0.223 OA
ATOM     19  C   UNL     1     -10.262  10.213  69.905  0.00  0.00    +0.059 C 
ATOM     20  C   UNL     1     -10.936  10.460  68.632  0.00  0.00    -0.021 C 
ATOM     21  C   UNL     1     -11.621  11.482  68.187  0.00  0.00    -0.005 C 
ENDBRANCH   1  21
BRANCH   6  22
ATOM     22  C   UNL     1      -8.904  17.126  67.585  0.00  0.00    +0.022 C 
ATOM     23  C   UNL     1      -9.358  18.381  66.656  0.00  0.00    +0.005 C 
BRANCH  22  24
ATOM     24  C   UNL     1      -7.411  17.666  67.709  0.00  0.00    -0.031 C 
ATOM     25  C   UNL     1      -6.854  18.111  68.729  0.00  0.00    -0.031 C 
BRANCH  25  26
ATOM     26  C   UNL     1      -7.098  19.549  69.385  0.00  0.00    +0.022 C 
ATOM     27  C   UNL     1      -6.668  20.354  68.030  0.00  0.00    +0.005 C 
BRANCH  26  28
ATOM     28  C   UNL     1      -5.577  19.618  69.985  0.00  0.00    +0.004 C 
ATOM     29  C   UNL     1      -5.022  20.788  69.182  0.00  0.00    +0.000 C 
ATOM     30  C   UNL     1      -5.732  20.036  71.428  0.00  0.00    +0.000 C 
ENDBRANCH  26  28
ENDBRANCH  25  26
ENDBRANCH  22  24
ENDBRANCH   6  22
TORSDOF 5
ENDMDL
MODEL 5
REMARK VINA RESULT:      -6.5      3.679      5.672
REMARK  Name = 
REMARK  5 active torsions:
REMARK  status: ('A' for Active; 'I' for Inactive)
REMARK    1  A    between atoms: C_4  and  C_5
REMARK    2  A    between atoms: C_15  and  C_16
REMARK    3  A    between atoms: C_16  and  C_18
REMARK    4  A    between atoms: C_19  and  C_20
REMARK    5  A    between atoms: C_20  and  C_22
REMARK                            x       y       z     vdW  Elec       q    Type
REMARK                         _______ _______ _______ _____ _____    ______ ____
ROOT
ATOM      1  C   UNL     1     -10.222  16.200  66.102  0.00  0.00    -0.009 C 
ATOM      2  C   UNL     1     -10.253  14.870  66.226  0.00  0.00    -0.045 C 
ATOM      3  C   UNL     1     -11.239  14.338  67.373  0.00  0.00    +0.018 C 
ATOM      4  C   UNL     1     -10.023  13.887  68.366  0.00  0.00    +0.004 C 
ATOM      5  C   UNL     1     -10.955  13.093  69.186  0.00  0.00    +0.001 C 
ATOM      6  C   UNL     1     -11.687  12.073  68.164  0.00  0.00    +0.004 C 
ATOM      7  C   UNL     1     -11.231  12.812  66.805  0.00  0.00    +0.004 C 
ATOM      8  C   UNL     1      -9.908  12.434  66.363  0.00  0.00    +0.000 C 
ATOM      9  C   UNL     1     -12.328  12.882  65.837  0.00  0.00    +0.001 C 
ATOM     10  C   UNL     1     -12.122  14.111  64.961  0.00  0.00    +0.004 C 
ATOM     11  C   UNL     1     -10.649  14.488  64.828  0.00  0.00    +0.022 C 
ENDROOT
BRANCH   1  21
ATOM     12  C   UNL     1     -10.411  18.632  66.089  0.00  0.00    -0.002 C 
ATOM     13  C   UNL     1      -9.542  18.639  66.674  0.00  0.00    +0.004 C 
ATOM     14  C   UNL     1      -8.623  19.862  67.196  0.00  0.00    +0.176 C 
ATOM     15  O   UNL     1      -9.813  20.810  67.250  0.00  0.00    -0.218 OA
ATOM     16  C   UNL     1      -8.822  19.409  68.755  0.00  0.00    +0.071 C 
ATOM     17  C   UNL     1      -8.180  17.902  68.873  0.00  0.00    +0.159 C 
ATOM     18  O   UNL     1      -6.943  18.446  69.569  0.00  0.00    -0.223 OA
ATOM     19  C   UNL     1      -7.386  17.812  67.424  0.00  0.00    +0.059 C 
ATOM     20  C   UNL     1      -8.495  17.611  66.495  0.00  0.00    -0.021 C 
ATOM     21  C   UNL     1      -8.841  16.592  65.750  0.00  0.00    -0.005 C 
ENDBRANCH   1  21
BRANCH   6  22
ATOM     22  C   UNL     1     -10.369  10.995  68.186  0.00  0.00    +0.022 C 
ATOM     23  C   UNL     1     -11.250   9.830  67.472  0.00  0.00    +0.005 C 
BRANCH  22  24
ATOM     24  C   UNL     1     -10.627  10.398  69.640  0.00  0.00    -0.031 C 
ATOM     25  C   UNL     1      -9.922   9.573  70.250  0.00  0.00    -0.031 C 
BRANCH  25  26
ATOM     26  C   UNL     1      -9.841   8.003  69.958  0.00  0.00    +0.022 C 
ATOM     27  C   UNL     1     -11.312   7.702  70.604  0.00  0.00    +0.005 C 
BRANCH  26  28
ATOM     28  C   UNL     1      -9.086   7.700  71.379  0.00  0.00    +0.004 C 
ATOM     29  C   UNL     1      -7.938   8.698  71.293  0.00  0.00    +0.000 C 
ATOM     30  C   UNL     1     -10.052   8.145  72.451  0.00  0.00    +0.000 C 
ENDBRANCH  26  28
ENDBRANCH  25  26
ENDBRANCH  22  24
ENDBRANCH   6  22
TORSDOF 5
ENDMDL
MODEL 6
REMARK VINA RESULT:      -6.4      5.664      9.183
REMARK  Name = 
REMARK  5 active torsions:
REMARK  status: ('A' for Active; 'I' for Inactive)
REMARK    1  A    between atoms: C_4  and  C_5
REMARK    2  A    between atoms: C_15  and  C_16
REMARK    3  A    between atoms: C_16  and  C_18
REMARK    4  A    between atoms: C_19  and  C_20
REMARK    5  A    between atoms: C_20  and  C_22
REMARK                            x       y       z     vdW  Elec       q    Type
REMARK                         _______ _______ _______ _____ _____    ______ ____
ROOT
ATOM      1  C   UNL     1      -9.497  10.084  65.955  0.00  0.00    -0.009 C 
ATOM      2  C   UNL     1     -10.215  11.159  66.296  0.00  0.00    -0.045 C 
ATOM      3  C   UNL     1      -9.342  12.386  66.843  0.00  0.00    +0.018 C 
ATOM      4  C   UNL     1      -9.843  12.201  68.387  0.00  0.00    +0.004 C 
ATOM      5  C   UNL     1      -9.328  13.536  68.740  0.00  0.00    +0.001 C 
ATOM      6  C   UNL     1     -10.023  14.567  67.703  0.00  0.00    +0.004 C 
ATOM      7  C   UNL     1     -10.557  13.454  66.665  0.00  0.00    +0.004 C 
ATOM      8  C   UNL     1     -11.820  12.868  67.053  0.00  0.00    +0.000 C 
ATOM      9  C   UNL     1     -10.347  13.870  65.276  0.00  0.00    +0.001 C 
ATOM     10  C   UNL     1     -10.184  12.622  64.418  0.00  0.00    +0.004 C 
ATOM     11  C   UNL     1     -10.925  11.419  64.998  0.00  0.00    +0.022 C 
ENDROOT
BRANCH   1  21
ATOM     12  C   UNL     1      -7.727   8.442  66.296  0.00  0.00    -0.002 C 
ATOM     13  C   UNL     1      -8.217   8.191  67.187  0.00  0.00    +0.004 C 
ATOM     14  C   UNL     1      -7.938   7.015  68.259  0.00  0.00    +0.176 C 
ATOM     15  O   UNL     1      -6.444   7.026  67.969  0.00  0.00    -0.218 OA
ATOM     16  C   UNL     1      -7.781   8.097  69.477  0.00  0.00    +0.071 C 
ATOM     17  C   UNL     1      -9.228   8.865  69.587  0.00  0.00    +0.159 C 
ATOM     18  O   UNL     1      -9.595   8.069  70.829  0.00  0.00    -0.223 OA
ATOM     19  C   UNL     1     -10.150   7.884  68.625  0.00  0.00    +0.059 C 
ATOM     20  C   UNL     1      -9.690   8.266  67.292  0.00  0.00    -0.021 C 
ATOM     21  C   UNL     1     -10.285   8.882  66.302  0.00  0.00    -0.005 C 
ENDBRANCH   1  21
BRANCH   6  22
ATOM     22  C   UNL     1     -11.464  14.616  68.609  0.00  0.00    +0.022 C 
ATOM     23  C   UNL     1     -11.829  16.094  68.036  0.00  0.00    +0.005 C 
BRANCH  22  24
ATOM     24  C   UNL     1     -10.836  15.212  69.946  0.00  0.00    -0.031 C 
ATOM     25  C   UNL     1     -11.277  15.092  71.104  0.00  0.00    -0.031 C 
BRANCH  25  26
ATOM     26  C   UNL     1     -12.534  15.867  71.718  0.00  0.00    +0.022 C 
ATOM     27  C   UNL     1     -12.253  15.333  73.237  0.00  0.00    +0.005 C 
BRANCH  26  28
ATOM     28  C   UNL     1     -13.552  14.625  71.402  0.00  0.00    +0.004 C 
ATOM     29  C   UNL     1     -13.318  13.763  72.636  0.00  0.00    +0.000 C 
ATOM     30  C   UNL     1     -14.940  15.216  71.463  0.00  0.00    +0.000 C 
ENDBRANCH  26  28
ENDBRANCH  25  26
ENDBRANCH  22  24
ENDBRANCH   6  22
TORSDOF 5
ENDMDL
MODEL 7
REMARK VINA RESULT:      -6.4      1.476      2.206
REMARK  Name = 
REMARK  5 active torsions:
REMARK  status: ('A' for Active; 'I' for Inactive)
REMARK    1  A    between atoms: C_4  and  C_5
REMARK    2  A    between atoms: C_15  and  C_16
REMARK    3  A    between atoms: C_16  and  C_18
REMARK    4  A    between atoms: C_19  and  C_20
REMARK    5  A    between atoms: C_20  and  C_22
REMARK                            x       y       z     vdW  Elec       q    Type
REMARK                         _______ _______ _______ _____ _____    ______ ____
ROOT
ATOM      1  C   UNL     1      -8.458  17.976  68.374  0.00  0.00    -0.009 C 
ATOM      2  C   UNL     1      -9.176  16.921  67.976  0.00  0.00    -0.045 C 
ATOM      3  C   UNL     1      -8.767  15.542  68.685  0.00  0.00    +0.018 C 
ATOM      4  C   UNL     1      -8.073  14.926  67.341  0.00  0.00    +0.004 C 
ATOM      5  C   UNL     1      -8.069  13.576  67.932  0.00  0.00    +0.001 C 
ATOM      6  C   UNL     1      -9.602  13.272  68.355  0.00  0.00    +0.004 C 
ATOM      7  C   UNL     1     -10.135  14.789  68.224  0.00  0.00    +0.004 C 
ATOM      8  C   UNL     1     -10.494  15.156  66.872  0.00  0.00    +0.000 C 
ATOM      9  C   UNL     1     -11.023  15.145  69.333  0.00  0.00    +0.001 C 
ATOM     10  C   UNL     1     -10.922  16.646  69.570  0.00  0.00    +0.004 C 
ATOM     11  C   UNL     1     -10.558  17.411  68.300  0.00  0.00    +0.022 C 
ENDROOT
BRANCH   1  21
ATOM     12  C   UNL     1      -6.524  19.281  69.082  0.00  0.00    -0.002 C 
ATOM     13  C   UNL     1      -6.119  19.078  68.138  0.00  0.00    +0.004 C 
ATOM     14  C   UNL     1      -4.773  19.611  67.420  0.00  0.00    +0.176 C 
ATOM     15  O   UNL     1      -4.051  19.755  68.752  0.00  0.00    -0.218 OA
ATOM     16  C   UNL     1      -4.224  18.084  67.207  0.00  0.00    +0.071 C 
ATOM     17  C   UNL     1      -5.326  17.339  66.244  0.00  0.00    +0.159 C 
ATOM     18  O   UNL     1      -4.403  17.451  65.041  0.00  0.00    -0.223 OA
ATOM     19  C   UNL     1      -6.210  18.649  65.749  0.00  0.00    +0.059 C 
ATOM     20  C   UNL     1      -6.989  18.945  66.949  0.00  0.00    -0.021 C 
ATOM     21  C   UNL     1      -8.269  18.863  67.206  0.00  0.00    -0.005 C 
ENDBRANCH   1  21
BRANCH   6  22
ATOM     22  C   UNL     1     -10.027  12.837  66.764  0.00  0.00    +0.022 C 
ATOM     23  C   UNL     1     -11.394  12.120  67.275  0.00  0.00    +0.005 C 
BRANCH  22  24
ATOM     24  C   UNL     1      -9.235  11.457  66.719  0.00  0.00    -0.031 C 
ATOM     25  C   UNL     1      -8.881  10.825  65.706  0.00  0.00    -0.031 C 
BRANCH  25  26
ATOM     26  C   UNL     1      -9.831   9.953  64.759  0.00  0.00    +0.022 C 
ATOM     27  C   UNL     1      -8.584   9.156  64.068  0.00  0.00    +0.005 C 
BRANCH  26  28
ATOM     28  C   UNL     1      -9.835  11.094  63.585  0.00  0.00    +0.004 C 
ATOM     29  C   UNL     1      -9.483  10.238  62.376  0.00  0.00    +0.000 C 
ATOM     30  C   UNL     1     -11.271  11.548  63.471  0.00  0.00    +0.000 C 
ENDBRANCH  26  28
ENDBRANCH  25  26
ENDBRANCH  22  24
ENDBRANCH   6  22
TORSDOF 5
ENDMDL
MODEL 8
REMARK VINA RESULT:      -6.3      6.237     11.249
REMARK  Name = 
REMARK  5 active torsions:
REMARK  status: ('A' for Active; 'I' for Inactive)
REMARK    1  A    between atoms: C_4  and  C_5
REMARK    2  A    between atoms: C_15  and  C_16
REMARK    3  A    between atoms: C_16  and  C_18
REMARK    4  A    between atoms: C_19  and  C_20
REMARK    5  A    between atoms: C_20  and  C_22
REMARK                            x       y       z     vdW  Elec       q    Type
REMARK                         _______ _______ _______ _____ _____    ______ ____
ROOT
ATOM      1  C   UNL     1      -9.989   6.696  68.821  0.00  0.00    -0.009 C 
ATOM      2  C   UNL     1     -10.183   7.826  68.135  0.00  0.00    -0.045 C 
ATOM      3  C   UNL     1      -9.071   8.951  68.392  0.00  0.00    +0.018 C 
ATOM      4  C   UNL     1     -10.075   9.909  69.254  0.00  0.00    +0.004 C 
ATOM      5  C   UNL     1      -9.142  11.042  69.129  0.00  0.00    +0.001 C 
ATOM      6  C   UNL     1      -8.885  11.232  67.542  0.00  0.00    +0.004 C 
ATOM      7  C   UNL     1      -9.505   9.816  67.082  0.00  0.00    +0.004 C 
ATOM      8  C   UNL     1     -10.943   9.840  66.935  0.00  0.00    +0.000 C 
ATOM      9  C   UNL     1      -8.680   9.176  66.054  0.00  0.00    +0.001 C 
ATOM     10  C   UNL     1      -8.853   7.666  66.167  0.00  0.00    +0.004 C 
ATOM     11  C   UNL     1     -10.215   7.279  66.737  0.00  0.00    +0.022 C 
ENDROOT
BRANCH   1  21
ATOM     12  C   UNL     1      -9.454   5.572  70.919  0.00  0.00    -0.002 C 
ATOM     13  C   UNL     1     -10.287   6.063  71.321  0.00  0.00    +0.004 C 
ATOM     14  C   UNL     1     -10.999   5.938  72.766  0.00  0.00    +0.176 C 
ATOM     15  O   UNL     1      -9.685   5.584  73.448  0.00  0.00    -0.218 OA
ATOM     16  C   UNL     1     -10.801   7.536  73.055  0.00  0.00    +0.071 C 
ATOM     17  C   UNL     1     -11.647   8.315  71.883  0.00  0.00    +0.159 C 
ATOM     18  O   UNL     1     -12.762   8.648  72.860  0.00  0.00    -0.223 OA
ATOM     19  C   UNL     1     -12.506   7.047  71.256  0.00  0.00    +0.059 C 
ATOM     20  C   UNL     1     -11.477   6.347  70.491  0.00  0.00    -0.021 C 
ATOM     21  C   UNL     1     -11.313   6.164  69.206  0.00  0.00    -0.005 C 
ENDBRANCH   1  21
BRANCH   6  22
ATOM     22  C   UNL     1     -10.340  12.094  67.339  0.00  0.00    +0.022 C 
ATOM     23  C   UNL     1      -9.870  12.636  65.880  0.00  0.00    +0.005 C 
BRANCH  22  24
ATOM     24  C   UNL     1      -9.878  13.434  68.064  0.00  0.00    -0.031 C 
ATOM     25  C   UNL     1     -10.559  14.156  68.816  0.00  0.00    -0.031 C 
BRANCH  25  26
ATOM     26  C   UNL     1     -11.712  15.166  68.363  0.00  0.00    +0.022 C 
ATOM     27  C   UNL     1     -10.779  16.491  68.578  0.00  0.00    +0.005 C 
BRANCH  26  28
ATOM     28  C   UNL     1     -12.321  15.272  69.878  0.00  0.00    +0.004 C 
ATOM     29  C   UNL     1     -12.335  13.799  70.267  0.00  0.00    +0.000 C 
ATOM     30  C   UNL     1     -11.267  15.990  70.687  0.00  0.00    +0.000 C 
ENDBRANCH  26  28
ENDBRANCH  25  26
ENDBRANCH  22  24
ENDBRANCH   6  22
TORSDOF 5
ENDMDL
MODEL 9
REMARK VINA RESULT:      -6.3      6.349     10.585
REMARK  Name = 
REMARK  5 active torsions:
REMARK  status: ('A' for Active; 'I' for Inactive)
REMARK    1  A    between atoms: C_4  and  C_5
REMARK    2  A    between atoms: C_15  and  C_16
REMARK    3  A    between atoms: C_16  and  C_18
REMARK    4  A    between atoms: C_19  and  C_20
REMARK    5  A    between atoms: C_20  and  C_22
REMARK                            x       y       z     vdW  Elec       q    Type
REMARK                         _______ _______ _______ _____ _____    ______ ____
ROOT
ATOM      1  C   UNL     1      -9.393   9.389  65.374  0.00  0.00    -0.009 C 
ATOM      2  C   UNL     1      -9.018   8.467  66.267  0.00  0.00    -0.045 C 
ATOM      3  C   UNL     1     -10.166   7.414  66.647  0.00  0.00    +0.018 C 
ATOM      4  C   UNL     1     -10.390   8.028  68.144  0.00  0.00    +0.004 C 
ATOM      5  C   UNL     1     -11.143   6.828  68.550  0.00  0.00    +0.001 C 
ATOM      6  C   UNL     1     -10.170   5.570  68.246  0.00  0.00    +0.004 C 
ATOM      7  C   UNL     1      -9.116   6.370  67.323  0.00  0.00    +0.004 C 
ATOM      8  C   UNL     1      -8.106   7.072  68.081  0.00  0.00    +0.000 C 
ATOM      9  C   UNL     1      -8.727   5.584  66.148  0.00  0.00    +0.001 C 
ATOM     10  C   UNL     1      -8.359   6.545  65.025  0.00  0.00    +0.004 C 
ATOM     11  C   UNL     1      -7.835   7.880  65.551  0.00  0.00    +0.022 C 
ENDROOT
BRANCH   1  21
ATOM     12  C   UNL     1     -10.320  10.890  63.690  0.00  0.00    -0.002 C 
ATOM     13  C   UNL     1     -10.505  11.556  64.476  0.00  0.00    +0.004 C 
ATOM     14  C   UNL     1     -11.051  13.077  64.475  0.00  0.00    +0.176 C 
ATOM     15  O   UNL     1     -11.874  12.842  63.216  0.00  0.00    -0.218 OA
ATOM     16  C   UNL     1     -12.302  12.679  65.452  0.00  0.00    +0.071 C 
ATOM     17  C   UNL     1     -11.629  12.140  66.850  0.00  0.00    +0.159 C 
ATOM     18  O   UNL     1     -11.966  13.444  67.555  0.00  0.00    -0.223 OA
ATOM     19  C   UNL     1     -10.061  12.614  66.617  0.00  0.00    +0.059 C 
ATOM     20  C   UNL     1      -9.599  11.628  65.643  0.00  0.00    -0.021 C 
ATOM     21  C   UNL     1      -8.723  10.659  65.724  0.00  0.00    -0.005 C 
ENDBRANCH   1  21
BRANCH   6  22
ATOM     22  C   UNL     1      -9.298   5.808  69.690  0.00  0.00    +0.022 C 
ATOM     23  C   UNL     1      -8.749   4.278  69.665  0.00  0.00    +0.005 C 
BRANCH  22  24
ATOM     24  C   UNL     1     -10.478   5.443  70.695  0.00  0.00    -0.031 C 
ATOM     25  C   UNL     1     -10.592   5.799  71.882  0.00  0.00    -0.031 C 
BRANCH  25  26
ATOM     26  C   UNL     1      -9.772   5.214  73.124  0.00  0.00    +0.022 C 
ATOM     27  C   UNL     1     -11.018   4.295  73.648  0.00  0.00    +0.005 C 
BRANCH  26  28
ATOM     28  C   UNL     1     -10.202   6.461  74.094  0.00  0.00    +0.004 C 
ATOM     29  C   UNL     1      -9.664   5.964  75.429  0.00  0.00    +0.000 C 
ATOM     30  C   UNL     1      -9.373   7.636  73.631  0.00  0.00    +0.000 C 
ENDBRANCH  26  28
ENDBRANCH  25  26
ENDBRANCH  22  24
ENDBRANCH   6  22
TORSDOF 5
ENDMDL
