MODEL 1
REMARK VINA RESULT:      -4.6      0.000      0.000
REMARK  Name = 
REMARK  1 active torsions:
REMARK  status: ('A' for Active; 'I' for Inactive)
REMARK    1  A    between atoms: C_8  and  N_9
REMARK                            x       y       z     vdW  Elec       q    Type
REMARK                         _______ _______ _______ _____ _____    ______ ____
ROOT
ATOM      1  C   UNL     1     -11.415  16.167  70.338  0.00  0.00    +0.131 C 
ATOM      2  N   UNL     1     -12.000  14.991  70.964  0.00  0.00    -0.323 N 
ATOM      3  C   UNL     1     -12.677  15.194  72.209  0.00  0.00    +0.083 A 
ATOM      4  C   UNL     1     -12.371  16.164  73.049  0.00  0.00    +0.162 C 
ATOM      5  C   UNL     1     -13.482  14.093  72.741  0.00  0.00    +0.019 A 
ATOM      6  C   UNL     1     -13.513  12.953  72.059  0.00  0.00    +0.003 A 
ATOM      7  C   UNL     1     -12.603  12.716  70.954  0.00  0.00    +0.019 A 
ATOM      8  C   UNL     1     -11.894  13.687  70.376  0.00  0.00    +0.076 A 
ENDROOT
BRANCH   4   9
ATOM      9  N   UNL     1     -12.459  16.003  74.471  0.00  0.00    -0.026 NA
ATOM     10  O   UNL     1     -12.355  17.072  75.126  0.00  0.00    -0.143 OA
ENDBRANCH   4   9
TORSDOF 1
ENDMDL
MODEL 2
REMARK VINA RESULT:      -4.4      6.157      7.175
REMARK  Name = 
REMARK  1 active torsions:
REMARK  status: ('A' for Active; 'I' for Inactive)
REMARK    1  A    between atoms: C_8  and  N_9
REMARK                            x       y       z     vdW  Elec       q    Type
REMARK                         _______ _______ _______ _____ _____    ______ ____
ROOT
ATOM      1  C   UNL     1     -11.321  11.823  64.176  0.00  0.00    +0.131 C 
ATOM      2  N   UNL     1     -11.378  12.404  65.509  0.00  0.00    -0.323 N 
ATOM      3  C   UNL     1     -11.599  13.815  65.586  0.00  0.00    +0.083 A 
ATOM      4  C   UNL     1     -11.236  14.659  64.638  0.00  0.00    +0.162 C 
ATOM      5  C   UNL     1     -11.906  14.393  66.897  0.00  0.00    +0.019 A 
ATOM      6  C   UNL     1     -11.927  13.581  67.948  0.00  0.00    +0.003 A 
ATOM      7  C   UNL     1     -11.436  12.219  67.854  0.00  0.00    +0.019 A 
ATOM      8  C   UNL     1     -11.205  11.609  66.690  0.00  0.00    +0.076 A 
ENDROOT
BRANCH   4   9
ATOM      9  N   UNL     1     -10.779  15.987  64.927  0.00  0.00    -0.026 NA
ATOM     10  O   UNL     1     -11.313  16.887  64.229  0.00  0.00    -0.143 OA
ENDBRANCH   4   9
TORSDOF 1
ENDMDL
MODEL 3
REMARK VINA RESULT:      -4.4      7.335      8.204
REMARK  Name = 
REMARK  1 active torsions:
REMARK  status: ('A' for Active; 'I' for Inactive)
REMARK    1  A    between atoms: C_8  and  N_9
REMARK                            x       y       z     vdW  Elec       q    Type
REMARK                         _______ _______ _______ _____ _____    ______ ____
ROOT
ATOM      1  C   UNL     1      -8.156  16.234  67.419  0.00  0.00    +0.131 C 
ATOM      2  N   UNL     1      -8.606  17.606  67.242  0.00  0.00    -0.323 N 
ATOM      3  C   UNL     1      -9.877  17.789  66.611  0.00  0.00    +0.083 A 
ATOM      4  C   UNL     1     -10.388  16.932  65.748  0.00  0.00    +0.162 C 
ATOM      5  C   UNL     1     -10.472  19.128  66.638  0.00  0.00    +0.019 A 
ATOM      6  C   UNL     1      -9.783  20.107  67.214  0.00  0.00    +0.003 A 
ATOM      7  C   UNL     1      -8.395  19.924  67.596  0.00  0.00    +0.019 A 
ATOM      8  C   UNL     1      -7.813  18.725  67.663  0.00  0.00    +0.076 A 
ENDROOT
BRANCH   4   9
ATOM      9  N   UNL     1     -11.187  17.350  64.633  0.00  0.00    -0.026 NA
ATOM     10  O   UNL     1     -11.583  16.413  63.893  0.00  0.00    -0.143 OA
ENDBRANCH   4   9
TORSDOF 1
ENDMDL
MODEL 4
REMARK VINA RESULT:      -4.3      4.922      6.357
REMARK  Name = 
REMARK  1 active torsions:
REMARK  status: ('A' for Active; 'I' for Inactive)
REMARK    1  A    between atoms: C_8  and  N_9
REMARK                            x       y       z     vdW  Elec       q    Type
REMARK                         _______ _______ _______ _____ _____    ______ ____
ROOT
ATOM      1  C   UNL     1      -9.903  17.813  68.356  0.00  0.00    +0.131 C 
ATOM      2  N   UNL     1     -10.652  16.568  68.277  0.00  0.00    -0.323 N 
ATOM      3  C   UNL     1     -10.562  15.842  67.046  0.00  0.00    +0.083 A 
ATOM      4  C   UNL     1     -10.333  16.417  65.881  0.00  0.00    +0.162 C 
ATOM      5  C   UNL     1     -11.093  14.477  67.013  0.00  0.00    +0.019 A 
ATOM      6  C   UNL     1     -11.662  14.000  68.114  0.00  0.00    +0.003 A 
ATOM      7  C   UNL     1     -11.963  14.867  69.239  0.00  0.00    +0.019 A 
ATOM      8  C   UNL     1     -11.454  16.093  69.367  0.00  0.00    +0.076 A 
ENDROOT
BRANCH   4   9
ATOM      9  N   UNL     1     -10.915  15.937  64.662  0.00  0.00    -0.026 NA
ATOM     10  O   UNL     1     -11.561  16.801  64.015  0.00  0.00    -0.143 OA
ENDBRANCH   4   9
TORSDOF 1
ENDMDL
MODEL 5
REMARK VINA RESULT:      -4.3      5.800      7.089
REMARK  Name = 
REMARK  1 active torsions:
REMARK  status: ('A' for Active; 'I' for Inactive)
REMARK    1  A    between atoms: C_8  and  N_9
REMARK                            x       y       z     vdW  Elec       q    Type
REMARK                         _______ _______ _______ _____ _____    ______ ____
ROOT
ATOM      1  C   UNL     1     -10.576  15.900  65.455  0.00  0.00    +0.131 C 
ATOM      2  N   UNL     1     -11.107  15.035  66.498  0.00  0.00    -0.323 N 
ATOM      3  C   UNL     1     -11.544  13.734  66.093  0.00  0.00    +0.083 A 
ATOM      4  C   UNL     1     -11.989  13.463  64.881  0.00  0.00    +0.162 C 
ATOM      5  C   UNL     1     -11.851  12.755  67.140  0.00  0.00    +0.019 A 
ATOM      6  C   UNL     1     -11.742  13.140  68.407  0.00  0.00    +0.003 A 
ATOM      7  C   UNL     1     -11.557  14.536  68.754  0.00  0.00    +0.019 A 
ATOM      8  C   UNL     1     -11.206  15.465  67.863  0.00  0.00    +0.076 A 
ENDROOT
BRANCH   4   9
ATOM      9  N   UNL     1     -13.030  12.507  64.642  0.00  0.00    -0.026 NA
ATOM     10  O   UNL     1     -13.080  12.073  63.462  0.00  0.00    -0.143 OA
ENDBRANCH   4   9
TORSDOF 1
ENDMDL
MODEL 6
REMARK VINA RESULT:      -4.3      3.458      4.444
REMARK  Name = 
REMARK  1 active torsions:
REMARK  status: ('A' for Active; 'I' for Inactive)
REMARK    1  A    between atoms: C_8  and  N_9
REMARK                            x       y       z     vdW  Elec       q    Type
REMARK                         _______ _______ _______ _____ _____    ______ ____
ROOT
ATOM      1  C   UNL     1     -11.799  15.768  69.491  0.00  0.00    +0.131 C 
ATOM      2  N   UNL     1     -12.534  14.847  70.345  0.00  0.00    -0.323 N 
ATOM      3  C   UNL     1     -12.216  13.458  70.213  0.00  0.00    +0.083 A 
ATOM      4  C   UNL     1     -11.759  12.921  69.098  0.00  0.00    +0.162 C 
ATOM      5  C   UNL     1     -12.749  12.533  71.216  0.00  0.00    +0.019 A 
ATOM      6  C   UNL     1     -13.526  13.028  72.174  0.00  0.00    +0.003 A 
ATOM      7  C   UNL     1     -14.028  14.387  72.104  0.00  0.00    +0.019 A 
ATOM      8  C   UNL     1     -13.537  15.300  71.263  0.00  0.00    +0.076 A 
ENDROOT
BRANCH   4   9
ATOM      9  N   UNL     1     -12.100  11.589  68.691  0.00  0.00    -0.026 NA
ATOM     10  O   UNL     1     -11.965  11.368  67.460  0.00  0.00    -0.143 OA
ENDBRANCH   4   9
TORSDOF 1
ENDMDL
MODEL 7
REMARK VINA RESULT:      -4.2      5.170      6.507
REMARK  Name = 
REMARK  1 active torsions:
REMARK  status: ('A' for Active; 'I' for Inactive)
REMARK    1  A    between atoms: C_8  and  N_9
REMARK                            x       y       z     vdW  Elec       q    Type
REMARK                         _______ _______ _______ _____ _____    ______ ____
ROOT
ATOM      1  C   UNL     1     -11.680  15.283  68.448  0.00  0.00    +0.131 C 
ATOM      2  N   UNL     1     -11.716  13.844  68.236  0.00  0.00    -0.323 N 
ATOM      3  C   UNL     1     -11.743  13.395  66.877  0.00  0.00    +0.083 A 
ATOM      4  C   UNL     1     -12.255  14.105  65.890  0.00  0.00    +0.162 C 
ATOM      5  C   UNL     1     -11.532  11.969  66.620  0.00  0.00    +0.019 A 
ATOM      6  C   UNL     1     -11.362  11.164  67.663  0.00  0.00    +0.003 A 
ATOM      7  C   UNL     1     -11.609  11.626  69.016  0.00  0.00    +0.019 A 
ATOM      8  C   UNL     1     -11.739  12.917  69.330  0.00  0.00    +0.076 A 
ENDROOT
BRANCH   4   9
ATOM      9  N   UNL     1     -12.934  13.499  64.782  0.00  0.00    -0.026 NA
ATOM     10  O   UNL     1     -12.636  13.982  63.659  0.00  0.00    -0.143 OA
ENDBRANCH   4   9
TORSDOF 1
ENDMDL
MODEL 8
REMARK VINA RESULT:      -4.2      5.805      7.214
REMARK  Name = 
REMARK  1 active torsions:
REMARK  status: ('A' for Active; 'I' for Inactive)
REMARK    1  A    between atoms: C_8  and  N_9
REMARK                            x       y       z     vdW  Elec       q    Type
REMARK                         _______ _______ _______ _____ _____    ______ ____
ROOT
ATOM      1  C   UNL     1     -11.595  14.788  68.297  0.00  0.00    +0.131 C 
ATOM      2  N   UNL     1     -11.388  13.971  67.111  0.00  0.00    -0.323 N 
ATOM      3  C   UNL     1     -10.766  14.609  65.991  0.00  0.00    +0.083 A 
ATOM      4  C   UNL     1     -10.857  15.904  65.753  0.00  0.00    +0.162 C 
ATOM      5  C   UNL     1     -10.321  13.766  64.879  0.00  0.00    +0.019 A 
ATOM      6  C   UNL     1     -10.550  12.460  64.954  0.00  0.00    +0.003 A 
ATOM      7  C   UNL     1     -11.415  11.907  65.980  0.00  0.00    +0.019 A 
ATOM      8  C   UNL     1     -11.799  12.598  67.055  0.00  0.00    +0.076 A 
ENDROOT
BRANCH   4   9
ATOM      9  N   UNL     1     -10.911  16.437  64.423  0.00  0.00    -0.026 NA
ATOM     10  O   UNL     1     -12.066  16.480  63.924  0.00  0.00    -0.143 OA
ENDBRANCH   4   9
TORSDOF 1
ENDMDL
MODEL 9
REMARK VINA RESULT:      -4.1      4.401      6.341
REMARK  Name = 
REMARK  1 active torsions:
REMARK  status: ('A' for Active; 'I' for Inactive)
REMARK    1  A    between atoms: C_8  and  N_9
REMARK                            x       y       z     vdW  Elec       q    Type
REMARK                         _______ _______ _______ _____ _____    ______ ____
ROOT
ATOM      1  C   UNL     1     -10.491  16.415  65.719  0.00  0.00    +0.131 C 
ATOM      2  N   UNL     1     -10.405  17.623  66.526  0.00  0.00    -0.323 N 
ATOM      3  C   UNL     1     -10.283  17.444  67.940  0.00  0.00    +0.083 A 
ATOM      4  C   UNL     1     -10.757  16.392  68.581  0.00  0.00    +0.162 C 
ATOM      5  C   UNL     1      -9.950  18.614  68.756  0.00  0.00    +0.019 A 
ATOM      6  C   UNL     1      -9.814  19.785  68.143  0.00  0.00    +0.003 A 
ATOM      7  C   UNL     1     -10.209  19.957  66.757  0.00  0.00    +0.019 A 
ATOM      8  C   UNL     1     -10.457  18.932  65.940  0.00  0.00    +0.076 A 
ENDROOT
BRANCH   4   9
ATOM      9  N   UNL     1     -11.293  16.479  69.908  0.00  0.00    -0.026 NA
ATOM     10  O   UNL     1     -12.438  15.976  70.043  0.00  0.00    -0.143 OA
ENDBRANCH   4   9
TORSDOF 1
ENDMDL
