MODEL 1
REMARK VINA RESULT:      -6.8      0.000      0.000
REMARK  Name = 
REMARK  6 active torsions:
REMARK  status: ('A' for Active; 'I' for Inactive)
REMARK    1  A    between atoms: C_2  and  N_5
REMARK    2  A    between atoms: N_5  and  C_6
REMARK    3  A    between atoms: C_6  and  C_7
REMARK    4  A    between atoms: C_7  and  C_9
REMARK    5  A    between atoms: C_9  and  O_10
REMARK    6  A    between atoms: O_10  and  C_11
REMARK                            x       y       z     vdW  Elec       q    Type
REMARK                         _______ _______ _______ _____ _____    ______ ____
ROOT
ATOM      1  C   UNL     1     -10.923  12.796  68.038  0.00  0.00    +0.134 A 
ATOM      2  C   UNL     1     -11.674  12.794  66.868  0.00  0.00    +0.011 A 
ATOM      3  C   UNL     1     -11.983  14.129  66.243  0.00  0.00    +0.065 C 
ATOM      4  C   UNL     1     -10.683  14.162  65.224  0.00  0.00    +0.187 C 
ATOM      5  C   UNL     1     -11.521  13.484  63.851  0.00  0.00    +0.187 C 
ATOM      6  C   UNL     1     -12.155  12.196  64.658  0.00  0.00    +0.062 C 
ATOM      7  O   UNL     1     -12.784  14.310  64.042  0.00  0.00    -0.220 OA
ATOM      8  O   UNL     1     -10.956  15.589  64.791  0.00  0.00    -0.220 OA
ATOM      9  C   UNL     1     -11.333  11.917  65.831  0.00  0.00    -0.021 A 
ATOM     10  C   UNL     1     -10.629  10.770  66.103  0.00  0.00    -0.004 A 
ATOM     11  C   UNL     1      -9.885  10.766  67.281  0.00  0.00    +0.003 A 
ATOM     12  C   UNL     1     -10.110  11.700  68.286  0.00  0.00    +0.037 A 
ENDROOT
BRANCH   1  13
ATOM     13  O   UNL     1     -11.450  13.596  69.042  0.00  0.00    -0.473 OA
BRANCH  13  14
ATOM     14  C   UNL     1     -10.736  14.765  69.445  0.00  0.00    +0.239 C 
BRANCH  14  15
ATOM     15  C   UNL     1     -11.910  15.944  69.490  0.00  0.00    +0.213 C 
ATOM     16  O   UNL     1     -10.873  17.050  69.284  0.00  0.00    -0.218 OA
BRANCH  15  17
ATOM     17  C   UNL     1     -11.795  16.077  71.146  0.00  0.00    +0.125 C 
BRANCH  17  18
ATOM     18  N   UNL     1     -13.138  15.871  71.606  0.00  0.00    -0.218 NA
BRANCH  18  20
ATOM     19  C   UNL     1     -13.616  15.037  72.795  0.00  0.00    +0.017 C 
ATOM     20  C   UNL     1     -13.305  14.961  72.669  0.00  0.00    +0.060 C 
ATOM     21  C   UNL     1     -12.497  15.200  73.898  0.00  0.00    +0.017 C 
ATOM     22  C   UNL     1     -13.586  13.553  72.333  0.00  0.00    +0.017 C 
ENDBRANCH  18  20
ENDBRANCH  17  18
ENDBRANCH  15  17
ENDBRANCH  14  15
ENDBRANCH  13  14
ENDBRANCH   1  13
TORSDOF 6
ENDMDL
MODEL 2
REMARK VINA RESULT:      -6.6      4.123      6.669
REMARK  Name = 
REMARK  6 active torsions:
REMARK  status: ('A' for Active; 'I' for Inactive)
REMARK    1  A    between atoms: C_2  and  N_5
REMARK    2  A    between atoms: N_5  and  C_6
REMARK    3  A    between atoms: C_6  and  C_7
REMARK    4  A    between atoms: C_7  and  C_9
REMARK    5  A    between atoms: C_9  and  O_10
REMARK    6  A    between atoms: O_10  and  C_11
REMARK                            x       y       z     vdW  Elec       q    Type
REMARK                         _______ _______ _______ _____ _____    ______ ____
ROOT
ATOM      1  C   UNL     1     -11.515  15.920  69.246  0.00  0.00    +0.134 A 
ATOM      2  C   UNL     1     -11.683  15.106  70.361  0.00  0.00    +0.011 A 
ATOM      3  C   UNL     1     -12.374  15.708  71.556  0.00  0.00    +0.065 C 
ATOM      4  C   UNL     1     -13.899  15.214  71.158  0.00  0.00    +0.187 C 
ATOM      5  C   UNL     1     -13.856  13.744  72.100  0.00  0.00    +0.187 C 
ATOM      6  C   UNL     1     -12.418  13.204  71.506  0.00  0.00    +0.062 C 
ATOM      7  O   UNL     1     -13.192  14.380  73.312  0.00  0.00    -0.220 OA
ATOM      8  O   UNL     1     -14.538  16.011  72.279  0.00  0.00    -0.220 OA
ATOM      9  C   UNL     1     -12.186  13.809  70.199  0.00  0.00    -0.021 A 
ATOM     10  C   UNL     1     -12.056  13.167  68.992  0.00  0.00    -0.004 A 
ATOM     11  C   UNL     1     -11.875  13.979  67.875  0.00  0.00    +0.003 A 
ATOM     12  C   UNL     1     -11.496  15.311  67.999  0.00  0.00    +0.037 A 
ENDROOT
BRANCH   1  13
ATOM     13  O   UNL     1     -10.872  17.120  69.517  0.00  0.00    -0.473 OA
BRANCH  13  14
ATOM     14  C   UNL     1      -9.814  17.550  68.661  0.00  0.00    +0.239 C 
BRANCH  14  15
ATOM     15  C   UNL     1      -9.968  19.206  68.651  0.00  0.00    +0.213 C 
ATOM     16  O   UNL     1     -10.958  19.155  67.485  0.00  0.00    -0.218 OA
BRANCH  15  17
ATOM     17  C   UNL     1      -8.678  19.379  67.613  0.00  0.00    +0.125 C 
BRANCH  17  18
ATOM     18  N   UNL     1      -7.545  18.971  68.393  0.00  0.00    -0.218 NA
BRANCH  18  20
ATOM     19  C   UNL     1      -6.223  19.740  68.408  0.00  0.00    +0.017 C 
ATOM     20  C   UNL     1      -6.501  19.908  68.521  0.00  0.00    +0.060 C 
ATOM     21  C   UNL     1      -6.032  20.215  69.903  0.00  0.00    +0.017 C 
ATOM     22  C   UNL     1      -6.446  21.017  67.550  0.00  0.00    +0.017 C 
ENDBRANCH  18  20
ENDBRANCH  17  18
ENDBRANCH  15  17
ENDBRANCH  14  15
ENDBRANCH  13  14
ENDBRANCH   1  13
TORSDOF 6
ENDMDL
MODEL 3
REMARK VINA RESULT:      -6.4      2.124      3.572
REMARK  Name = 
REMARK  6 active torsions:
REMARK  status: ('A' for Active; 'I' for Inactive)
REMARK    1  A    between atoms: C_2  and  N_5
REMARK    2  A    between atoms: N_5  and  C_6
REMARK    3  A    between atoms: C_6  and  C_7
REMARK    4  A    between atoms: C_7  and  C_9
REMARK    5  A    between atoms: C_9  and  O_10
REMARK    6  A    between atoms: O_10  and  C_11
REMARK                            x       y       z     vdW  Elec       q    Type
REMARK                         _______ _______ _______ _____ _____    ______ ____
ROOT
ATOM      1  C   UNL     1     -11.192  13.281  68.231  0.00  0.00    +0.134 A 
ATOM      2  C   UNL     1     -11.866  13.210  67.016  0.00  0.00    +0.011 A 
ATOM      3  C   UNL     1     -11.984  14.482  66.218  0.00  0.00    +0.065 C 
ATOM      4  C   UNL     1     -10.629  14.252  65.301  0.00  0.00    +0.187 C 
ATOM      5  C   UNL     1     -11.452  13.499  63.959  0.00  0.00    +0.187 C 
ATOM      6  C   UNL     1     -12.275  12.394  64.863  0.00  0.00    +0.062 C 
ATOM      7  O   UNL     1     -12.623  14.469  63.958  0.00  0.00    -0.220 OA
ATOM      8  O   UNL     1     -10.713  15.635  64.685  0.00  0.00    -0.220 OA
ATOM      9  C   UNL     1     -11.562  12.180  66.118  0.00  0.00    -0.021 A 
ATOM     10  C   UNL     1     -11.008  11.009  66.575  0.00  0.00    -0.004 A 
ATOM     11  C   UNL     1     -10.344  11.075  67.797  0.00  0.00    +0.003 A 
ATOM     12  C   UNL     1     -10.524  12.145  68.666  0.00  0.00    +0.037 A 
ENDROOT
BRANCH   1  13
ATOM     13  O   UNL     1     -11.686  14.250  69.092  0.00  0.00    -0.473 OA
BRANCH  13  14
ATOM     14  C   UNL     1     -10.864  14.710  70.164  0.00  0.00    +0.239 C 
BRANCH  14  15
ATOM     15  C   UNL     1     -11.213  16.334  70.256  0.00  0.00    +0.213 C 
ATOM     16  O   UNL     1     -12.374  16.189  69.270  0.00  0.00    -0.218 OA
BRANCH  15  17
ATOM     17  C   UNL     1     -10.149  16.693  69.026  0.00  0.00    +0.125 C 
BRANCH  17  18
ATOM     18  N   UNL     1     -10.929  17.468  68.105  0.00  0.00    -0.218 NA
BRANCH  18  20
ATOM     19  C   UNL     1     -10.489  18.634  67.219  0.00  0.00    +0.017 C 
ATOM     20  C   UNL     1     -10.263  18.525  67.453  0.00  0.00    +0.060 C 
ATOM     21  C   UNL     1      -9.145  18.158  66.539  0.00  0.00    +0.017 C 
ATOM     22  C   UNL     1     -10.126  19.804  68.176  0.00  0.00    +0.017 C 
ENDBRANCH  18  20
ENDBRANCH  17  18
ENDBRANCH  15  17
ENDBRANCH  14  15
ENDBRANCH  13  14
ENDBRANCH   1  13
TORSDOF 6
ENDMDL
MODEL 4
REMARK VINA RESULT:      -6.4      1.975      2.817
REMARK  Name = 
REMARK  6 active torsions:
REMARK  status: ('A' for Active; 'I' for Inactive)
REMARK    1  A    between atoms: C_2  and  N_5
REMARK    2  A    between atoms: N_5  and  C_6
REMARK    3  A    between atoms: C_6  and  C_7
REMARK    4  A    between atoms: C_7  and  C_9
REMARK    5  A    between atoms: C_9  and  O_10
REMARK    6  A    between atoms: O_10  and  C_11
REMARK                            x       y       z     vdW  Elec       q    Type
REMARK                         _______ _______ _______ _____ _____    ______ ____
ROOT
ATOM      1  C   UNL     1     -10.779  14.846  67.759  0.00  0.00    +0.134 A 
ATOM      2  C   UNL     1     -11.322  13.756  67.087  0.00  0.00    +0.011 A 
ATOM      3  C   UNL     1     -12.456  14.027  66.135  0.00  0.00    +0.065 C 
ATOM      4  C   UNL     1     -11.525  14.200  64.781  0.00  0.00    +0.187 C 
ATOM      5  C   UNL     1     -11.669  12.541  64.258  0.00  0.00    +0.187 C 
ATOM      6  C   UNL     1     -11.257  11.870  65.705  0.00  0.00    +0.062 C 
ATOM      7  O   UNL     1     -13.157  12.434  64.558  0.00  0.00    -0.220 OA
ATOM      8  O   UNL     1     -12.697  14.656  63.934  0.00  0.00    -0.220 OA
ATOM      9  C   UNL     1     -10.470  12.833  66.469  0.00  0.00    -0.021 A 
ATOM     10  C   UNL     1      -9.173  12.697  66.901  0.00  0.00    -0.004 A 
ATOM     11  C   UNL     1      -8.631  13.782  67.584  0.00  0.00    +0.003 A 
ATOM     12  C   UNL     1      -9.437  14.787  68.108  0.00  0.00    +0.037 A 
ENDROOT
BRANCH   1  13
ATOM     13  O   UNL     1     -11.714  15.600  68.454  0.00  0.00    -0.473 OA
BRANCH  13  14
ATOM     14  C   UNL     1     -11.709  15.568  69.881  0.00  0.00    +0.239 C 
BRANCH  14  15
ATOM     15  C   UNL     1     -13.184  14.900  70.263  0.00  0.00    +0.213 C 
ATOM     16  O   UNL     1     -13.354  15.840  71.458  0.00  0.00    -0.218 OA
BRANCH  15  17
ATOM     17  C   UNL     1     -12.476  13.734  71.217  0.00  0.00    +0.125 C 
BRANCH  17  18
ATOM     18  N   UNL     1     -11.719  12.939  70.293  0.00  0.00    -0.218 NA
BRANCH  18  20
ATOM     19  C   UNL     1     -12.264  11.541  69.999  0.00  0.00    +0.017 C 
ATOM     20  C   UNL     1     -12.028  11.565  70.247  0.00  0.00    +0.060 C 
ATOM     21  C   UNL     1     -12.828  11.013  71.377  0.00  0.00    +0.017 C 
ATOM     22  C   UNL     1     -11.038  10.656  69.639  0.00  0.00    +0.017 C 
ENDBRANCH  18  20
ENDBRANCH  17  18
ENDBRANCH  15  17
ENDBRANCH  14  15
ENDBRANCH  13  14
ENDBRANCH   1  13
TORSDOF 6
ENDMDL
MODEL 5
REMARK VINA RESULT:      -6.4      2.088      3.155
REMARK  Name = 
REMARK  6 active torsions:
REMARK  status: ('A' for Active; 'I' for Inactive)
REMARK    1  A    between atoms: C_2  and  N_5
REMARK    2  A    between atoms: N_5  and  C_6
REMARK    3  A    between atoms: C_6  and  C_7
REMARK    4  A    between atoms: C_7  and  C_9
REMARK    5  A    between atoms: C_9  and  O_10
REMARK    6  A    between atoms: O_10  and  C_11
REMARK                            x       y       z     vdW  Elec       q    Type
REMARK                         _______ _______ _______ _____ _____    ______ ____
ROOT
ATOM      1  C   UNL     1      -9.464  15.433  66.107  0.00  0.00    +0.134 A 
ATOM      2  C   UNL     1     -10.551  14.581  66.276  0.00  0.00    +0.011 A 
ATOM      3  C   UNL     1     -11.545  14.498  65.148  0.00  0.00    +0.065 C 
ATOM      4  C   UNL     1     -10.851  13.209  64.383  0.00  0.00    +0.187 C 
ATOM      5  C   UNL     1     -11.841  11.996  65.156  0.00  0.00    +0.187 C 
ATOM      6  C   UNL     1     -11.591  12.528  66.695  0.00  0.00    +0.062 C 
ATOM      7  O   UNL     1     -13.139  12.778  65.026  0.00  0.00    -0.220 OA
ATOM      8  O   UNL     1     -11.775  13.318  63.186  0.00  0.00    -0.220 OA
ATOM      9  C   UNL     1     -10.339  13.278  66.741  0.00  0.00    -0.021 A 
ATOM     10  C   UNL     1      -9.216  12.982  67.474  0.00  0.00    -0.004 A 
ATOM     11  C   UNL     1      -8.131  13.841  67.316  0.00  0.00    +0.003 A 
ATOM     12  C   UNL     1      -8.277  15.099  66.742  0.00  0.00    +0.037 A 
ENDROOT
BRANCH   1  13
ATOM     13  O   UNL     1      -9.816  16.736  65.787  0.00  0.00    -0.473 OA
BRANCH  13  14
ATOM     14  C   UNL     1      -9.363  17.802  66.621  0.00  0.00    +0.239 C 
BRANCH  14  15
ATOM     15  C   UNL     1     -10.741  18.291  67.415  0.00  0.00    +0.213 C 
ATOM     16  O   UNL     1     -10.032  19.521  67.986  0.00  0.00    -0.218 OA
BRANCH  15  17
ATOM     17  C   UNL     1     -10.359  17.386  68.759  0.00  0.00    +0.125 C 
BRANCH  17  18
ATOM     18  N   UNL     1     -11.516  16.564  68.966  0.00  0.00    -0.218 NA
BRANCH  18  20
ATOM     19  C   UNL     1     -11.125  15.598  70.085  0.00  0.00    +0.017 C 
ATOM     20  C   UNL     1     -11.461  15.663  70.048  0.00  0.00    +0.060 C 
ATOM     21  C   UNL     1     -11.934  14.272  69.795  0.00  0.00    +0.017 C 
ATOM     22  C   UNL     1     -11.692  16.197  71.403  0.00  0.00    +0.017 C 
ENDBRANCH  18  20
ENDBRANCH  17  18
ENDBRANCH  15  17
ENDBRANCH  14  15
ENDBRANCH  13  14
ENDBRANCH   1  13
TORSDOF 6
ENDMDL
MODEL 6
REMARK VINA RESULT:      -6.4      3.633      5.647
REMARK  Name = 
REMARK  6 active torsions:
REMARK  status: ('A' for Active; 'I' for Inactive)
REMARK    1  A    between atoms: C_2  and  N_5
REMARK    2  A    between atoms: N_5  and  C_6
REMARK    3  A    between atoms: C_6  and  C_7
REMARK    4  A    between atoms: C_7  and  C_9
REMARK    5  A    between atoms: C_9  and  O_10
REMARK    6  A    between atoms: O_10  and  C_11
REMARK                            x       y       z     vdW  Elec       q    Type
REMARK                         _______ _______ _______ _____ _____    ______ ____
ROOT
ATOM      1  C   UNL     1     -10.175  18.004  68.036  0.00  0.00    +0.134 A 
ATOM      2  C   UNL     1      -8.849  18.166  68.423  0.00  0.00    +0.011 A 
ATOM      3  C   UNL     1      -8.042  16.917  68.659  0.00  0.00    +0.065 C 
ATOM      4  C   UNL     1      -7.420  16.806  67.133  0.00  0.00    +0.187 C 
ATOM      5  C   UNL     1      -5.939  17.660  67.486  0.00  0.00    +0.187 C 
ATOM      6  C   UNL     1      -6.658  18.955  68.206  0.00  0.00    +0.062 C 
ATOM      7  O   UNL     1      -5.699  16.968  68.819  0.00  0.00    -0.220 OA
ATOM      8  O   UNL     1      -6.798  15.449  67.397  0.00  0.00    -0.220 OA
ATOM      9  C   UNL     1      -8.032  19.064  67.727  0.00  0.00    -0.021 A 
ATOM     10  C   UNL     1      -8.593  20.106  67.030  0.00  0.00    -0.004 A 
ATOM     11  C   UNL     1      -9.925  19.952  66.652  0.00  0.00    +0.003 A 
ATOM     12  C   UNL     1     -10.738  18.986  67.233  0.00  0.00    +0.037 A 
ENDROOT
BRANCH   1  13
ATOM     13  O   UNL     1     -10.917  17.204  68.893  0.00  0.00    -0.473 OA
BRANCH  13  14
ATOM     14  C   UNL     1     -11.381  15.936  68.431  0.00  0.00    +0.239 C 
BRANCH  14  15
ATOM     15  C   UNL     1     -11.227  14.953  69.765  0.00  0.00    +0.213 C 
ATOM     16  O   UNL     1     -12.116  13.879  69.134  0.00  0.00    -0.218 OA
BRANCH  15  17
ATOM     17  C   UNL     1     -12.534  15.664  70.513  0.00  0.00    +0.125 C 
BRANCH  17  18
ATOM     18  N   UNL     1     -12.101  15.849  71.868  0.00  0.00    -0.218 NA
BRANCH  18  20
ATOM     19  C   UNL     1     -13.181  15.473  72.883  0.00  0.00    +0.017 C 
ATOM     20  C   UNL     1     -12.905  15.268  72.869  0.00  0.00    +0.060 C 
ATOM     21  C   UNL     1     -12.441  15.412  74.278  0.00  0.00    +0.017 C 
ATOM     22  C   UNL     1     -13.624  14.023  72.540  0.00  0.00    +0.017 C 
ENDBRANCH  18  20
ENDBRANCH  17  18
ENDBRANCH  15  17
ENDBRANCH  14  15
ENDBRANCH  13  14
ENDBRANCH   1  13
TORSDOF 6
ENDMDL
MODEL 7
REMARK VINA RESULT:      -6.3      3.765      5.303
REMARK  Name = 
REMARK  6 active torsions:
REMARK  status: ('A' for Active; 'I' for Inactive)
REMARK    1  A    between atoms: C_2  and  N_5
REMARK    2  A    between atoms: N_5  and  C_6
REMARK    3  A    between atoms: C_6  and  C_7
REMARK    4  A    between atoms: C_7  and  C_9
REMARK    5  A    between atoms: C_9  and  O_10
REMARK    6  A    between atoms: O_10  and  C_11
REMARK                            x       y       z     vdW  Elec       q    Type
REMARK                         _______ _______ _______ _____ _____    ______ ____
ROOT
ATOM      1  C   UNL     1      -9.556  15.572  66.717  0.00  0.00    +0.134 A 
ATOM      2  C   UNL     1     -10.736  15.209  66.078  0.00  0.00    +0.011 A 
ATOM      3  C   UNL     1     -10.621  14.624  64.695  0.00  0.00    +0.065 C 
ATOM      4  C   UNL     1     -10.572  13.041  65.167  0.00  0.00    +0.187 C 
ATOM      5  C   UNL     1     -12.285  12.754  64.992  0.00  0.00    +0.187 C 
ATOM      6  C   UNL     1     -12.766  14.067  65.863  0.00  0.00    +0.062 C 
ATOM      7  O   UNL     1     -12.412  13.501  63.672  0.00  0.00    -0.220 OA
ATOM      8  O   UNL     1     -10.262  12.548  63.766  0.00  0.00    -0.220 OA
ATOM      9  C   UNL     1     -11.692  14.456  66.771  0.00  0.00    -0.021 A 
ATOM     10  C   UNL     1     -11.728  14.485  68.143  0.00  0.00    -0.004 A 
ATOM     11  C   UNL     1     -10.551  14.860  68.785  0.00  0.00    +0.003 A 
ATOM     12  C   UNL     1      -9.523  15.500  68.102  0.00  0.00    +0.037 A 
ENDROOT
BRANCH   1  13
ATOM     13  O   UNL     1      -8.762  16.439  65.980  0.00  0.00    -0.473 OA
BRANCH  13  14
ATOM     14  C   UNL     1      -7.417  16.674  66.398  0.00  0.00    +0.239 C 
BRANCH  14  15
ATOM     15  C   UNL     1      -7.051  18.151  65.726  0.00  0.00    +0.213 C 
ATOM     16  O   UNL     1      -5.566  17.985  66.054  0.00  0.00    -0.218 OA
BRANCH  15  17
ATOM     17  C   UNL     1      -7.331  18.941  67.165  0.00  0.00    +0.125 C 
BRANCH  17  18
ATOM     18  N   UNL     1      -8.243  19.991  66.814  0.00  0.00    -0.218 NA
BRANCH  18  20
ATOM     19  C   UNL     1      -9.708  20.101  67.239  0.00  0.00    +0.017 C 
ATOM     20  C   UNL     1      -9.595  19.788  67.156  0.00  0.00    +0.060 C 
ATOM     21  C   UNL     1      -9.870  19.098  68.448  0.00  0.00    +0.017 C 
ATOM     22  C   UNL     1     -10.553  19.536  66.063  0.00  0.00    +0.017 C 
ENDBRANCH  18  20
ENDBRANCH  17  18
ENDBRANCH  15  17
ENDBRANCH  14  15
ENDBRANCH  13  14
ENDBRANCH   1  13
TORSDOF 6
ENDMDL
MODEL 8
REMARK VINA RESULT:      -6.3      5.755      8.410
REMARK  Name = 
REMARK  6 active torsions:
REMARK  status: ('A' for Active; 'I' for Inactive)
REMARK    1  A    between atoms: C_2  and  N_5
REMARK    2  A    between atoms: N_5  and  C_6
REMARK    3  A    between atoms: C_6  and  C_7
REMARK    4  A    between atoms: C_7  and  C_9
REMARK    5  A    between atoms: C_9  and  O_10
REMARK    6  A    between atoms: O_10  and  C_11
REMARK                            x       y       z     vdW  Elec       q    Type
REMARK                         _______ _______ _______ _____ _____    ______ ____
ROOT
ATOM      1  C   UNL     1      -6.728  18.065  67.621  0.00  0.00    +0.134 A 
ATOM      2  C   UNL     1      -6.581  18.621  68.887  0.00  0.00    +0.011 A 
ATOM      3  C   UNL     1      -5.852  17.803  69.920  0.00  0.00    +0.065 C 
ATOM      4  C   UNL     1      -4.354  18.439  69.637  0.00  0.00    +0.187 C 
ATOM      5  C   UNL     1      -4.447  19.663  70.878  0.00  0.00    +0.187 C 
ATOM      6  C   UNL     1      -5.914  20.257  70.420  0.00  0.00    +0.062 C 
ATOM      7  O   UNL     1      -5.070  18.749  71.922  0.00  0.00    -0.220 OA
ATOM      8  O   UNL     1      -3.669  17.444  70.554  0.00  0.00    -0.220 OA
ATOM      9  C   UNL     1      -6.136  19.943  69.012  0.00  0.00    -0.021 A 
ATOM     10  C   UNL     1      -6.306  20.827  67.976  0.00  0.00    -0.004 A 
ATOM     11  C   UNL     1      -6.466  20.272  66.708  0.00  0.00    +0.003 A 
ATOM     12  C   UNL     1      -6.787  18.931  66.538  0.00  0.00    +0.037 A 
ENDROOT
BRANCH   1  13
ATOM     13  O   UNL     1      -7.316  16.808  67.624  0.00  0.00    -0.473 OA
BRANCH  13  14
ATOM     14  C   UNL     1      -7.901  16.312  66.420  0.00  0.00    +0.239 C 
BRANCH  14  15
ATOM     15  C   UNL     1      -9.379  15.731  66.914  0.00  0.00    +0.213 C 
ATOM     16  O   UNL     1      -9.548  14.927  65.622  0.00  0.00    -0.218 OA
BRANCH  15  17
ATOM     17  C   UNL     1     -10.178  17.039  66.262  0.00  0.00    +0.125 C 
BRANCH  17  18
ATOM     18  N   UNL     1     -10.610  17.789  67.405  0.00  0.00    -0.218 NA
BRANCH  18  20
ATOM     19  C   UNL     1     -10.818  19.304  67.358  0.00  0.00    +0.017 C 
ATOM     20  C   UNL     1     -10.496  19.191  67.315  0.00  0.00    +0.060 C 
ATOM     21  C   UNL     1     -10.234  19.764  65.965  0.00  0.00    +0.017 C 
ATOM     22  C   UNL     1      -9.901  19.909  68.458  0.00  0.00    +0.017 C 
ENDBRANCH  18  20
ENDBRANCH  17  18
ENDBRANCH  15  17
ENDBRANCH  14  15
ENDBRANCH  13  14
ENDBRANCH   1  13
TORSDOF 6
ENDMDL
MODEL 9
REMARK VINA RESULT:      -6.2      3.951      6.648
REMARK  Name = 
REMARK  6 active torsions:
REMARK  status: ('A' for Active; 'I' for Inactive)
REMARK    1  A    between atoms: C_2  and  N_5
REMARK    2  A    between atoms: N_5  and  C_6
REMARK    3  A    between atoms: C_6  and  C_7
REMARK    4  A    between atoms: C_7  and  C_9
REMARK    5  A    between atoms: C_9  and  O_10
REMARK    6  A    between atoms: O_10  and  C_11
REMARK                            x       y       z     vdW  Elec       q    Type
REMARK                         _______ _______ _______ _____ _____    ______ ____
ROOT
ATOM      1  C   UNL     1     -10.621  14.433  66.362  0.00  0.00    +0.134 A 
ATOM      2  C   UNL     1      -9.785  15.497  66.042  0.00  0.00    +0.011 A 
ATOM      3  C   UNL     1     -10.396  16.873  66.021  0.00  0.00    +0.065 C 
ATOM      4  C   UNL     1     -10.033  17.261  67.585  0.00  0.00    +0.187 C 
ATOM      5  C   UNL     1      -8.534  18.076  67.219  0.00  0.00    +0.187 C 
ATOM      6  C   UNL     1      -7.906  16.867  66.293  0.00  0.00    +0.062 C 
ATOM      7  O   UNL     1      -9.075  18.814  66.004  0.00  0.00    -0.220 OA
ATOM      8  O   UNL     1     -10.839  18.546  67.538  0.00  0.00    -0.220 OA
ATOM      9  C   UNL     1      -8.536  15.605  66.667  0.00  0.00    -0.021 A 
ATOM     10  C   UNL     1      -7.928  14.489  67.187  0.00  0.00    -0.004 A 
ATOM     11  C   UNL     1      -8.762  13.417  67.497  0.00  0.00    +0.003 A 
ATOM     12  C   UNL     1     -10.056  13.335  66.995  0.00  0.00    +0.037 A 
ENDROOT
BRANCH   1  13
ATOM     13  O   UNL     1     -11.758  14.353  65.571  0.00  0.00    -0.473 OA
BRANCH  13  14
ATOM     14  C   UNL     1     -12.225  13.071  65.152  0.00  0.00    +0.239 C 
BRANCH  14  15
ATOM     15  C   UNL     1     -12.135  13.144  63.493  0.00  0.00    +0.213 C 
ATOM     16  O   UNL     1     -12.921  11.840  63.346  0.00  0.00    -0.218 OA
BRANCH  15  17
ATOM     17  C   UNL     1     -10.683  12.328  63.477  0.00  0.00    +0.125 C 
BRANCH  17  18
ATOM     18  N   UNL     1     -10.982  11.073  64.105  0.00  0.00    -0.218 NA
BRANCH  18  20
ATOM     19  C   UNL     1      -9.642  10.512  64.583  0.00  0.00    +0.017 C 
ATOM     20  C   UNL     1      -9.879  10.283  64.486  0.00  0.00    +0.060 C 
ATOM     21  C   UNL     1      -9.115   9.616  63.394  0.00  0.00    +0.017 C 
ATOM     22  C   UNL     1      -9.961   9.556  65.767  0.00  0.00    +0.017 C 
ENDBRANCH  18  20
ENDBRANCH  17  18
ENDBRANCH  15  17
ENDBRANCH  14  15
ENDBRANCH  13  14
ENDBRANCH   1  13
TORSDOF 6
ENDMDL
