MODEL 1
REMARK VINA RESULT:      -7.0      0.000      0.000
REMARK  Name = 
REMARK  9 active torsions:
REMARK  status: ('A' for Active; 'I' for Inactive)
REMARK    1  A    between atoms: C_4  and  C_5
REMARK    2  A    between atoms: C_5  and  C_6
REMARK    3  A    between atoms: N_8  and  C_9
REMARK    4  A    between atoms: C_12  and  C_13
REMARK    5  A    between atoms: C_13  and  C_14
REMARK    6  A    between atoms: C_14  and  N_15
REMARK    7  A    between atoms: N_15  and  C_16
REMARK    8  A    between atoms: C_16  and  C_17
REMARK    9  A    between atoms: C_17  and  C_19
REMARK                            x       y       z     vdW  Elec       q    Type
REMARK                         _______ _______ _______ _____ _____    ______ ____
ROOT
ATOM      1  C   UNL     1      -9.993  16.538  65.718  0.00  0.00    +0.073 A 
ATOM      2  C   UNL     1      -8.947  15.882  66.302  0.00  0.00    +0.016 A 
ATOM      3  C   UNL     1      -9.050  14.497  66.377  0.00  0.00    -0.003 A 
ATOM      4  C   UNL     1     -10.292  13.886  66.249  0.00  0.00    -0.021 A 
ATOM      5  C   UNL     1     -11.246  14.528  65.476  0.00  0.00    -0.003 A 
ATOM      6  C   UNL     1     -10.988  15.827  65.057  0.00  0.00    +0.016 A 
ENDROOT
BRANCH   1   8
ATOM      7  C   UNL     1     -10.173  18.485  67.111  0.00  0.00    +0.252 C 
ATOM      8  N   UNL     1     -10.190  17.953  65.777  0.00  0.00    -0.179 NA
ATOM      9  O   UNL     1     -11.178  18.087  67.777  0.00  0.00    -0.273 OA
BRANCH   7  10
ATOM     10  C   UNL     1      -9.827  19.941  67.195  0.00  0.00    +0.133 C 
BRANCH  10  15
ATOM     11  N   UNL     1      -5.484  21.840  67.115  0.00  0.00    -0.100 NA
ATOM     12  C   UNL     1      -6.336  20.955  67.443  0.00  0.00    +0.200 A 
ATOM     13  S   UNL     1      -6.342  19.890  68.790  0.00  0.00    -0.048 S 
ATOM     14  C   UNL     1      -7.874  19.160  68.515  0.00  0.00    +0.053 A 
ATOM     15  C   UNL     1      -8.361  20.007  67.521  0.00  0.00    +0.077 A 
ATOM     16  N   UNL     1      -7.378  20.451  66.739  0.00  0.00    -0.225 NA
ENDBRANCH  10  15
ENDBRANCH   7  10
ENDBRANCH   1   8
BRANCH   4  17
ATOM     17  C   UNL     1     -10.259  12.392  66.161  0.00  0.00    +0.045 C 
BRANCH  17  18
ATOM     18  C   UNL     1     -11.141  11.886  67.298  0.00  0.00    +0.093 C 
BRANCH  18  19
ATOM     19  N   UNL     1     -10.647  12.532  68.506  0.00  0.00    -0.215 NA
BRANCH  19  20
ATOM     20  C   UNL     1     -11.737  12.838  69.428  0.00  0.00    +0.126 C 
BRANCH  20  21
ATOM     21  C   UNL     1     -11.855  14.489  69.303  0.00  0.00    +0.192 C 
ATOM     22  O   UNL     1     -10.353  14.660  69.530  0.00  0.00    -0.217 OA
BRANCH  21  23
ATOM     23  C   UNL     1     -12.165  14.634  70.895  0.00  0.00    +0.009 A 
ATOM     24  C   UNL     1     -11.675  15.805  71.443  0.00  0.00    -0.002 A 
ATOM     25  C   UNL     1     -12.138  16.155  72.706  0.00  0.00    -0.000 A 
ATOM     26  C   UNL     1     -13.454  15.801  72.978  0.00  0.00    -0.000 A 
ATOM     27  C   UNL     1     -14.084  14.787  72.267  0.00  0.00    -0.000 A 
ATOM     28  C   UNL     1     -13.491  14.279  71.117  0.00  0.00    -0.002 A 
ENDBRANCH  21  23
ENDBRANCH  20  21
ENDBRANCH  19  20
ENDBRANCH  18  19
ENDBRANCH  17  18
ENDBRANCH   4  17
TORSDOF 9
ENDMDL
MODEL 2
REMARK VINA RESULT:      -6.9      3.741      7.302
REMARK  Name = 
REMARK  9 active torsions:
REMARK  status: ('A' for Active; 'I' for Inactive)
REMARK    1  A    between atoms: C_4  and  C_5
REMARK    2  A    between atoms: C_5  and  C_6
REMARK    3  A    between atoms: N_8  and  C_9
REMARK    4  A    between atoms: C_12  and  C_13
REMARK    5  A    between atoms: C_13  and  C_14
REMARK    6  A    between atoms: C_14  and  N_15
REMARK    7  A    between atoms: N_15  and  C_16
REMARK    8  A    between atoms: C_16  and  C_17
REMARK    9  A    between atoms: C_17  and  C_19
REMARK                            x       y       z     vdW  Elec       q    Type
REMARK                         _______ _______ _______ _____ _____    ______ ____
ROOT
ATOM      1  C   UNL     1      -8.595  15.452  67.716  0.00  0.00    +0.073 A 
ATOM      2  C   UNL     1      -8.269  15.498  69.042  0.00  0.00    +0.016 A 
ATOM      3  C   UNL     1      -7.051  16.090  69.360  0.00  0.00    -0.003 A 
ATOM      4  C   UNL     1      -6.076  16.237  68.381  0.00  0.00    -0.021 A 
ATOM      5  C   UNL     1      -6.498  16.377  67.069  0.00  0.00    -0.003 A 
ATOM      6  C   UNL     1      -7.839  16.151  66.782  0.00  0.00    +0.016 A 
ENDROOT
BRANCH   1   8
ATOM      7  C   UNL     1      -9.664  13.304  67.624  0.00  0.00    +0.252 C 
ATOM      8  N   UNL     1      -9.662  14.669  67.176  0.00  0.00    -0.179 NA
ATOM      9  O   UNL     1      -8.662  12.670  67.169  0.00  0.00    -0.273 OA
BRANCH   7  10
ATOM     10  C   UNL     1     -10.998  12.626  67.547  0.00  0.00    +0.133 C 
BRANCH  10  15
ATOM     11  N   UNL     1     -12.609  15.195  63.903  0.00  0.00    -0.100 NA
ATOM     12  C   UNL     1     -12.256  14.112  64.467  0.00  0.00    +0.200 A 
ATOM     13  S   UNL     1     -11.648  12.665  63.769  0.00  0.00    -0.048 S 
ATOM     14  C   UNL     1     -11.332  11.808  65.226  0.00  0.00    +0.053 A 
ATOM     15  C   UNL     1     -11.498  12.842  66.145  0.00  0.00    +0.077 A 
ATOM     16  N   UNL     1     -12.435  13.701  65.745  0.00  0.00    -0.225 NA
ENDBRANCH  10  15
ENDBRANCH   7  10
ENDBRANCH   1   8
BRANCH   4  17
ATOM     17  C   UNL     1      -4.885  17.049  68.787  0.00  0.00    +0.045 C 
BRANCH  17  18
ATOM     18  C   UNL     1      -4.879  18.269  67.874  0.00  0.00    +0.093 C 
BRANCH  18  19
ATOM     19  N   UNL     1      -4.981  19.427  68.752  0.00  0.00    -0.215 NA
BRANCH  19  20
ATOM     20  C   UNL     1      -6.313  20.021  68.696  0.00  0.00    +0.126 C 
BRANCH  20  21
ATOM     21  C   UNL     1      -6.598  20.103  67.063  0.00  0.00    +0.192 C 
ATOM     22  O   UNL     1      -6.588  21.631  67.092  0.00  0.00    -0.217 OA
BRANCH  21  23
ATOM     23  C   UNL     1      -8.209  20.058  67.295  0.00  0.00    +0.009 A 
ATOM     24  C   UNL     1      -8.914  19.675  66.169  0.00  0.00    -0.002 A 
ATOM     25  C   UNL     1     -10.248  19.324  66.345  0.00  0.00    -0.000 A 
ATOM     26  C   UNL     1     -10.546  18.703  67.551  0.00  0.00    -0.000 A 
ATOM     27  C   UNL     1      -9.718  18.851  68.657  0.00  0.00    -0.000 A 
ATOM     28  C   UNL     1      -8.459  19.421  68.506  0.00  0.00    -0.002 A 
ENDBRANCH  21  23
ENDBRANCH  20  21
ENDBRANCH  19  20
ENDBRANCH  18  19
ENDBRANCH  17  18
ENDBRANCH   4  17
TORSDOF 9
ENDMDL
MODEL 3
REMARK VINA RESULT:      -6.9      5.615      8.789
REMARK  Name = 
REMARK  9 active torsions:
REMARK  status: ('A' for Active; 'I' for Inactive)
REMARK    1  A    between atoms: C_4  and  C_5
REMARK    2  A    between atoms: C_5  and  C_6
REMARK    3  A    between atoms: N_8  and  C_9
REMARK    4  A    between atoms: C_12  and  C_13
REMARK    5  A    between atoms: C_13  and  C_14
REMARK    6  A    between atoms: C_14  and  N_15
REMARK    7  A    between atoms: N_15  and  C_16
REMARK    8  A    between atoms: C_16  and  C_17
REMARK    9  A    between atoms: C_17  and  C_19
REMARK                            x       y       z     vdW  Elec       q    Type
REMARK                         _______ _______ _______ _____ _____    ______ ____
ROOT
ATOM      1  C   UNL     1     -10.272  10.578  68.901  0.00  0.00    +0.073 A 
ATOM      2  C   UNL     1      -9.225  11.405  68.605  0.00  0.00    +0.016 A 
ATOM      3  C   UNL     1      -8.826  11.446  67.273  0.00  0.00    -0.003 A 
ATOM      4  C   UNL     1      -9.189  10.419  66.410  0.00  0.00    -0.021 A 
ATOM      5  C   UNL     1     -10.373   9.748  66.672  0.00  0.00    -0.003 A 
ATOM      6  C   UNL     1     -11.011   9.988  67.882  0.00  0.00    +0.016 A 
ENDROOT
BRANCH   1   8
ATOM      7  C   UNL     1     -12.019  10.527  70.547  0.00  0.00    +0.252 C 
ATOM      8  N   UNL     1     -10.655  10.209  70.228  0.00  0.00    -0.179 NA
ATOM      9  O   UNL     1     -12.198  11.783  70.598  0.00  0.00    -0.273 OA
BRANCH   7  10
ATOM     10  C   UNL     1     -12.607   9.705  71.653  0.00  0.00    +0.133 C 
BRANCH  10  15
ATOM     11  N   UNL     1     -11.092   5.815  69.406  0.00  0.00    -0.100 NA
ATOM     12  C   UNL     1     -11.275   6.540  70.434  0.00  0.00    +0.200 A 
ATOM     13  S   UNL     1     -10.400   6.581  71.911  0.00  0.00    -0.048 S 
ATOM     14  C   UNL     1     -11.232   7.892  72.650  0.00  0.00    +0.053 A 
ATOM     15  C   UNL     1     -11.965   8.348  71.556  0.00  0.00    +0.077 A 
ATOM     16  N   UNL     1     -12.317   7.344  70.755  0.00  0.00    -0.225 NA
ENDBRANCH  10  15
ENDBRANCH   7  10
ENDBRANCH   1   8
BRANCH   4  17
ATOM     17  C   UNL     1      -8.864  10.657  64.967  0.00  0.00    +0.045 C 
BRANCH  17  18
ATOM     18  C   UNL     1     -10.104  10.241  64.184  0.00  0.00    +0.093 C 
BRANCH  18  19
ATOM     19  N   UNL     1     -10.286  11.252  63.153  0.00  0.00    -0.215 NA
BRANCH  19  20
ATOM     20  C   UNL     1     -10.490  12.575  63.735  0.00  0.00    +0.126 C 
BRANCH  20  21
ATOM     21  C   UNL     1     -12.052  12.483  64.287  0.00  0.00    +0.192 C 
ATOM     22  O   UNL     1     -12.530  13.489  63.240  0.00  0.00    -0.217 OA
BRANCH  21  23
ATOM     23  C   UNL     1     -11.786  13.665  65.375  0.00  0.00    +0.009 A 
ATOM     24  C   UNL     1     -12.066  13.286  66.675  0.00  0.00    -0.002 A 
ATOM     25  C   UNL     1     -11.597  14.111  67.691  0.00  0.00    -0.000 A 
ATOM     26  C   UNL     1     -10.385  14.741  67.434  0.00  0.00    -0.000 A 
ATOM     27  C   UNL     1      -9.931  14.918  66.133  0.00  0.00    -0.000 A 
ATOM     28  C   UNL     1     -10.561  14.258  65.086  0.00  0.00    -0.002 A 
ENDBRANCH  21  23
ENDBRANCH  20  21
ENDBRANCH  19  20
ENDBRANCH  18  19
ENDBRANCH  17  18
ENDBRANCH   4  17
TORSDOF 9
ENDMDL
MODEL 4
REMARK VINA RESULT:      -6.8      3.280      7.447
REMARK  Name = 
REMARK  9 active torsions:
REMARK  status: ('A' for Active; 'I' for Inactive)
REMARK    1  A    between atoms: C_4  and  C_5
REMARK    2  A    between atoms: C_5  and  C_6
REMARK    3  A    between atoms: N_8  and  C_9
REMARK    4  A    between atoms: C_12  and  C_13
REMARK    5  A    between atoms: C_13  and  C_14
REMARK    6  A    between atoms: C_14  and  N_15
REMARK    7  A    between atoms: N_15  and  C_16
REMARK    8  A    between atoms: C_16  and  C_17
REMARK    9  A    between atoms: C_17  and  C_19
REMARK                            x       y       z     vdW  Elec       q    Type
REMARK                         _______ _______ _______ _____ _____    ______ ____
ROOT
ATOM      1  C   UNL     1     -10.423  15.245  68.172  0.00  0.00    +0.073 A 
ATOM      2  C   UNL     1     -10.233  16.034  69.272  0.00  0.00    +0.016 A 
ATOM      3  C   UNL     1     -10.262  17.408  69.061  0.00  0.00    -0.003 A 
ATOM      4  C   UNL     1     -10.079  17.916  67.780  0.00  0.00    -0.021 A 
ATOM      5  C   UNL     1     -10.476  17.126  66.713  0.00  0.00    -0.003 A 
ATOM      6  C   UNL     1     -10.828  15.806  66.967  0.00  0.00    +0.016 A 
ENDROOT
BRANCH   1   8
ATOM      7  C   UNL     1     -11.370  13.041  68.081  0.00  0.00    +0.252 C 
ATOM      8  N   UNL     1     -10.176  13.837  68.140  0.00  0.00    -0.179 NA
ATOM      9  O   UNL     1     -12.036  13.132  69.158  0.00  0.00    -0.273 OA
BRANCH   7  10
ATOM     10  C   UNL     1     -11.175  11.670  67.508  0.00  0.00    +0.133 C 
BRANCH  10  15
ATOM     11  N   UNL     1     -12.555  13.758  63.482  0.00  0.00    -0.100 NA
ATOM     12  C   UNL     1     -11.968  12.853  64.155  0.00  0.00    +0.200 A 
ATOM     13  S   UNL     1     -10.639  11.857  63.717  0.00  0.00    -0.048 S 
ATOM     14  C   UNL     1     -10.440  11.045  65.219  0.00  0.00    +0.053 A 
ATOM     15  C   UNL     1     -11.283  11.819  66.015  0.00  0.00    +0.077 A 
ATOM     16  N   UNL     1     -12.328  12.268  65.322  0.00  0.00    -0.225 NA
ENDBRANCH  10  15
ENDBRANCH   7  10
ENDBRANCH   1   8
BRANCH   4  17
ATOM     17  C   UNL     1     -10.312  19.388  67.641  0.00  0.00    +0.045 C 
BRANCH  17  18
ATOM     18  C   UNL     1      -9.484  19.832  66.441  0.00  0.00    +0.093 C 
BRANCH  18  19
ATOM     19  N   UNL     1      -8.143  20.085  66.950  0.00  0.00    -0.215 NA
BRANCH  19  20
ATOM     20  C   UNL     1      -7.123  19.547  66.054  0.00  0.00    +0.126 C 
BRANCH  20  21
ATOM     21  C   UNL     1      -5.887  19.183  67.100  0.00  0.00    +0.192 C 
ATOM     22  O   UNL     1      -5.156  18.376  66.028  0.00  0.00    -0.217 OA
BRANCH  21  23
ATOM     23  C   UNL     1      -6.669  17.859  67.636  0.00  0.00    +0.009 A 
ATOM     24  C   UNL     1      -6.593  16.788  66.765  0.00  0.00    -0.002 A 
ATOM     25  C   UNL     1      -6.967  15.543  67.257  0.00  0.00    -0.000 A 
ATOM     26  C   UNL     1      -6.681  15.322  68.598  0.00  0.00    -0.000 A 
ATOM     27  C   UNL     1      -6.492  16.383  69.474  0.00  0.00    -0.000 A 
ATOM     28  C   UNL     1      -6.346  17.672  68.976  0.00  0.00    -0.002 A 
ENDBRANCH  21  23
ENDBRANCH  20  21
ENDBRANCH  19  20
ENDBRANCH  18  19
ENDBRANCH  17  18
ENDBRANCH   4  17
TORSDOF 9
ENDMDL
MODEL 5
REMARK VINA RESULT:      -6.7      3.727      6.516
REMARK  Name = 
REMARK  9 active torsions:
REMARK  status: ('A' for Active; 'I' for Inactive)
REMARK    1  A    between atoms: C_4  and  C_5
REMARK    2  A    between atoms: C_5  and  C_6
REMARK    3  A    between atoms: N_8  and  C_9
REMARK    4  A    between atoms: C_12  and  C_13
REMARK    5  A    between atoms: C_13  and  C_14
REMARK    6  A    between atoms: C_14  and  N_15
REMARK    7  A    between atoms: N_15  and  C_16
REMARK    8  A    between atoms: C_16  and  C_17
REMARK    9  A    between atoms: C_17  and  C_19
REMARK                            x       y       z     vdW  Elec       q    Type
REMARK                         _______ _______ _______ _____ _____    ______ ____
ROOT
ATOM      1  C   UNL     1     -10.763  14.875  66.988  0.00  0.00    +0.073 A 
ATOM      2  C   UNL     1     -10.416  15.426  65.787  0.00  0.00    +0.016 A 
ATOM      3  C   UNL     1     -10.977  14.844  64.655  0.00  0.00    -0.003 A 
ATOM      4  C   UNL     1     -11.503  13.559  64.725  0.00  0.00    -0.021 A 
ATOM      5  C   UNL     1     -12.012  13.139  65.942  0.00  0.00    -0.003 A 
ATOM      6  C   UNL     1     -11.779  13.930  67.061  0.00  0.00    +0.016 A 
ENDROOT
BRANCH   1   8
ATOM      7  C   UNL     1     -10.966  15.724  69.225  0.00  0.00    +0.252 C 
ATOM      8  N   UNL     1     -10.103  15.161  68.225  0.00  0.00    -0.179 NA
ATOM      9  O   UNL     1     -11.351  16.889  68.896  0.00  0.00    -0.273 OA
BRANCH   7  10
ATOM     10  C   UNL     1     -10.494  15.530  70.634  0.00  0.00    +0.133 C 
BRANCH  10  15
ATOM     11  N   UNL     1     -14.197  13.161  72.409  0.00  0.00    -0.100 NA
ATOM     12  C   UNL     1     -13.459  14.187  72.271  0.00  0.00    +0.200 A 
ATOM     13  S   UNL     1     -13.199  15.498  73.350  0.00  0.00    -0.048 S 
ATOM     14  C   UNL     1     -12.004  16.331  72.436  0.00  0.00    +0.053 A 
ATOM     15  C   UNL     1     -11.731  15.361  71.472  0.00  0.00    +0.077 A 
ATOM     16  N   UNL     1     -12.820  14.655  71.173  0.00  0.00    -0.225 NA
ENDBRANCH  10  15
ENDBRANCH   7  10
ENDBRANCH   1   8
BRANCH   4  17
ATOM     17  C   UNL     1     -12.241  13.108  63.503  0.00  0.00    +0.045 C 
BRANCH  17  18
ATOM     18  C   UNL     1     -11.850  11.650  63.292  0.00  0.00    +0.093 C 
BRANCH  18  19
ATOM     19  N   UNL     1     -10.396  11.611  63.353  0.00  0.00    -0.215 NA
BRANCH  19  20
ATOM     20  C   UNL     1      -9.911  10.270  63.662  0.00  0.00    +0.126 C 
BRANCH  20  21
ATOM     21  C   UNL     1      -8.541  10.582  64.545  0.00  0.00    +0.192 C 
ATOM     22  O   UNL     1      -8.411   9.113  64.949  0.00  0.00    -0.217 OA
BRANCH  21  23
ATOM     23  C   UNL     1      -9.419  10.922  65.874  0.00  0.00    +0.009 A 
ATOM     24  C   UNL     1     -10.081   9.823  66.388  0.00  0.00    -0.002 A 
ATOM     25  C   UNL     1     -10.607   9.944  67.670  0.00  0.00    -0.000 A 
ATOM     26  C   UNL     1      -9.875  10.739  68.542  0.00  0.00    -0.000 A 
ATOM     27  C   UNL     1      -8.990  11.698  68.065  0.00  0.00    -0.000 A 
ATOM     28  C   UNL     1      -8.644  11.710  66.719  0.00  0.00    -0.002 A 
ENDBRANCH  21  23
ENDBRANCH  20  21
ENDBRANCH  19  20
ENDBRANCH  18  19
ENDBRANCH  17  18
ENDBRANCH   4  17
TORSDOF 9
ENDMDL
MODEL 6
REMARK VINA RESULT:      -6.7      4.486      9.260
REMARK  Name = 
REMARK  9 active torsions:
REMARK  status: ('A' for Active; 'I' for Inactive)
REMARK    1  A    between atoms: C_4  and  C_5
REMARK    2  A    between atoms: C_5  and  C_6
REMARK    3  A    between atoms: N_8  and  C_9
REMARK    4  A    between atoms: C_12  and  C_13
REMARK    5  A    between atoms: C_13  and  C_14
REMARK    6  A    between atoms: C_14  and  N_15
REMARK    7  A    between atoms: N_15  and  C_16
REMARK    8  A    between atoms: C_16  and  C_17
REMARK    9  A    between atoms: C_17  and  C_19
REMARK                            x       y       z     vdW  Elec       q    Type
REMARK                         _______ _______ _______ _____ _____    ______ ____
ROOT
ATOM      1  C   UNL     1     -12.508  10.684  71.161  0.00  0.00    +0.073 A 
ATOM      2  C   UNL     1     -12.950  11.835  71.751  0.00  0.00    +0.016 A 
ATOM      3  C   UNL     1     -12.794  13.005  71.016  0.00  0.00    -0.003 A 
ATOM      4  C   UNL     1     -11.887  13.047  69.963  0.00  0.00    -0.021 A 
ATOM      5  C   UNL     1     -11.633  11.864  69.288  0.00  0.00    -0.003 A 
ATOM      6  C   UNL     1     -12.124  10.681  69.825  0.00  0.00    +0.016 A 
ENDROOT
BRANCH   1   8
ATOM      7  C   UNL     1     -13.345   8.461  71.514  0.00  0.00    +0.252 C 
ATOM      8  N   UNL     1     -12.347   9.439  71.847  0.00  0.00    -0.179 NA
ATOM      9  O   UNL     1     -14.490   8.810  71.938  0.00  0.00    -0.273 OA
BRANCH   7  10
ATOM     10  C   UNL     1     -12.928   7.042  71.753  0.00  0.00    +0.133 C 
BRANCH  10  15
ATOM     11  N   UNL     1      -9.675   7.959  68.429  0.00  0.00    -0.100 NA
ATOM     12  C   UNL     1     -10.122   7.346  69.449  0.00  0.00    +0.200 A 
ATOM     13  S   UNL     1      -9.265   6.576  70.723  0.00  0.00    -0.048 S 
ATOM     14  C   UNL     1     -10.616   6.138  71.693  0.00  0.00    +0.053 A 
ATOM     15  C   UNL     1     -11.613   6.865  71.045  0.00  0.00    +0.077 A 
ATOM     16  N   UNL     1     -11.383   6.944  69.735  0.00  0.00    -0.225 NA
ENDBRANCH  10  15
ENDBRANCH   7  10
ENDBRANCH   1   8
BRANCH   4  17
ATOM     17  C   UNL     1     -11.935  14.291  69.132  0.00  0.00    +0.045 C 
BRANCH  17  18
ATOM     18  C   UNL     1     -10.915  15.244  69.745  0.00  0.00    +0.093 C 
BRANCH  18  19
ATOM     19  N   UNL     1      -9.987  15.580  68.674  0.00  0.00    -0.215 NA
BRANCH  19  20
ATOM     20  C   UNL     1     -10.686  15.800  67.413  0.00  0.00    +0.126 C 
BRANCH  20  21
ATOM     21  C   UNL     1      -9.462  15.664  66.300  0.00  0.00    +0.192 C 
ATOM     22  O   UNL     1     -10.130  16.680  65.373  0.00  0.00    -0.217 OA
BRANCH  21  23
ATOM     23  C   UNL     1     -10.211  14.421  65.560  0.00  0.00    +0.009 A 
ATOM     24  C   UNL     1      -9.925  13.194  66.129  0.00  0.00    -0.002 A 
ATOM     25  C   UNL     1     -10.734  12.123  65.764  0.00  0.00    -0.000 A 
ATOM     26  C   UNL     1     -12.063  12.440  65.513  0.00  0.00    -0.000 A 
ATOM     27  C   UNL     1     -12.441  13.736  65.184  0.00  0.00    -0.000 A 
ATOM     28  C   UNL     1     -11.536  14.779  65.338  0.00  0.00    -0.002 A 
ENDBRANCH  21  23
ENDBRANCH  20  21
ENDBRANCH  19  20
ENDBRANCH  18  19
ENDBRANCH  17  18
ENDBRANCH   4  17
TORSDOF 9
ENDMDL
MODEL 7
REMARK VINA RESULT:      -6.6      3.018      4.318
REMARK  Name = 
REMARK  9 active torsions:
REMARK  status: ('A' for Active; 'I' for Inactive)
REMARK    1  A    between atoms: C_4  and  C_5
REMARK    2  A    between atoms: C_5  and  C_6
REMARK    3  A    between atoms: N_8  and  C_9
REMARK    4  A    between atoms: C_12  and  C_13
REMARK    5  A    between atoms: C_13  and  C_14
REMARK    6  A    between atoms: C_14  and  N_15
REMARK    7  A    between atoms: N_15  and  C_16
REMARK    8  A    between atoms: C_16  and  C_17
REMARK    9  A    between atoms: C_17  and  C_19
REMARK                            x       y       z     vdW  Elec       q    Type
REMARK                         _______ _______ _______ _____ _____    ______ ____
ROOT
ATOM      1  C   UNL     1     -10.175  15.985  66.879  0.00  0.00    +0.073 A 
ATOM      2  C   UNL     1     -11.203  15.403  67.567  0.00  0.00    +0.016 A 
ATOM      3  C   UNL     1     -11.828  14.325  66.950  0.00  0.00    -0.003 A 
ATOM      4  C   UNL     1     -11.690  14.135  65.580  0.00  0.00    -0.021 A 
ATOM      5  C   UNL     1     -10.524  14.588  64.984  0.00  0.00    -0.003 A 
ATOM      6  C   UNL     1      -9.668  15.385  65.733  0.00  0.00    +0.016 A 
ENDROOT
BRANCH   1   8
ATOM      7  C   UNL     1     -10.410  18.375  66.898  0.00  0.00    +0.252 C 
ATOM      8  N   UNL     1      -9.587  17.243  67.223  0.00  0.00    -0.179 NA
ATOM      9  O   UNL     1     -10.526  18.512  65.641  0.00  0.00    -0.273 OA
BRANCH   7  10
ATOM     10  C   UNL     1     -10.115  19.607  67.699  0.00  0.00    +0.133 C 
BRANCH  10  15
ATOM     11  N   UNL     1      -6.032  18.173  69.635  0.00  0.00    -0.100 NA
ATOM     12  C   UNL     1      -6.737  18.900  68.866  0.00  0.00    +0.200 A 
ATOM     13  S   UNL     1      -6.293  19.702  67.413  0.00  0.00    -0.048 S 
ATOM     14  C   UNL     1      -7.843  20.321  66.996  0.00  0.00    +0.053 A 
ATOM     15  C   UNL     1      -8.627  19.623  67.913  0.00  0.00    +0.077 A 
ATOM     16  N   UNL     1      -7.972  19.420  69.056  0.00  0.00    -0.225 NA
ENDBRANCH  10  15
ENDBRANCH   7  10
ENDBRANCH   1   8
BRANCH   4  17
ATOM     17  C   UNL     1     -12.249  12.848  65.057  0.00  0.00    +0.045 C 
BRANCH  17  18
ATOM     18  C   UNL     1     -11.958  12.842  63.561  0.00  0.00    +0.093 C 
BRANCH  18  19
ATOM     19  N   UNL     1     -11.071  11.711  63.329  0.00  0.00    -0.215 NA
BRANCH  19  20
ATOM     20  C   UNL     1     -10.872  10.932  64.547  0.00  0.00    +0.126 C 
BRANCH  20  21
ATOM     21  C   UNL     1      -9.220  10.786  64.610  0.00  0.00    +0.192 C 
ATOM     22  O   UNL     1      -9.306   9.261  64.535  0.00  0.00    -0.217 OA
BRANCH  21  23
ATOM     23  C   UNL     1      -9.238  10.757  66.239  0.00  0.00    +0.009 A 
ATOM     24  C   UNL     1      -8.853  11.954  66.812  0.00  0.00    -0.002 A 
ATOM     25  C   UNL     1      -9.117  12.123  68.166  0.00  0.00    -0.000 A 
ATOM     26  C   UNL     1     -10.279  11.517  68.626  0.00  0.00    -0.000 A 
ATOM     27  C   UNL     1     -10.858  10.460  67.935  0.00  0.00    -0.000 A 
ATOM     28  C   UNL     1     -10.421  10.152  66.652  0.00  0.00    -0.002 A 
ENDBRANCH  21  23
ENDBRANCH  20  21
ENDBRANCH  19  20
ENDBRANCH  18  19
ENDBRANCH  17  18
ENDBRANCH   4  17
TORSDOF 9
ENDMDL
MODEL 8
REMARK VINA RESULT:      -6.6      3.606      5.939
REMARK  Name = 
REMARK  9 active torsions:
REMARK  status: ('A' for Active; 'I' for Inactive)
REMARK    1  A    between atoms: C_4  and  C_5
REMARK    2  A    between atoms: C_5  and  C_6
REMARK    3  A    between atoms: N_8  and  C_9
REMARK    4  A    between atoms: C_12  and  C_13
REMARK    5  A    between atoms: C_13  and  C_14
REMARK    6  A    between atoms: C_14  and  N_15
REMARK    7  A    between atoms: N_15  and  C_16
REMARK    8  A    between atoms: C_16  and  C_17
REMARK    9  A    between atoms: C_17  and  C_19
REMARK                            x       y       z     vdW  Elec       q    Type
REMARK                         _______ _______ _______ _____ _____    ______ ____
ROOT
ATOM      1  C   UNL     1     -11.434  12.551  67.553  0.00  0.00    +0.073 A 
ATOM      2  C   UNL     1     -11.603  11.210  67.757  0.00  0.00    +0.016 A 
ATOM      3  C   UNL     1     -12.030  10.826  69.024  0.00  0.00    -0.003 A 
ATOM      4  C   UNL     1     -11.886  11.698  70.096  0.00  0.00    -0.021 A 
ATOM      5  C   UNL     1     -11.916  13.057  69.828  0.00  0.00    -0.003 A 
ATOM      6  C   UNL     1     -11.872  13.467  68.502  0.00  0.00    +0.016 A 
ENDROOT
BRANCH   1   8
ATOM      7  C   UNL     1     -11.421  14.272  65.879  0.00  0.00    +0.252 C 
ATOM      8  N   UNL     1     -10.767  13.114  66.420  0.00  0.00    -0.179 NA
ATOM      9  O   UNL     1     -12.538  13.967  65.357  0.00  0.00    -0.273 OA
BRANCH   7  10
ATOM     10  C   UNL     1     -10.525  15.184  65.096  0.00  0.00    +0.133 C 
BRANCH  10  15
ATOM     11  N   UNL     1     -10.975  19.302  67.402  0.00  0.00    -0.100 NA
ATOM     12  C   UNL     1     -10.373  18.224  67.099  0.00  0.00    +0.200 A 
ATOM     13  S   UNL     1      -9.236  17.315  68.011  0.00  0.00    -0.048 S 
ATOM     14  C   UNL     1      -9.050  15.997  66.921  0.00  0.00    +0.053 A 
ATOM     15  C   UNL     1     -10.099  16.270  66.045  0.00  0.00    +0.077 A 
ATOM     16  N   UNL     1     -10.290  17.582  65.909  0.00  0.00    -0.225 NA
ENDBRANCH  10  15
ENDBRANCH   7  10
ENDBRANCH   1   8
BRANCH   4  17
ATOM     17  C   UNL     1     -12.544  11.256  71.367  0.00  0.00    +0.045 C 
BRANCH  17  18
ATOM     18  C   UNL     1     -13.254   9.948  71.038  0.00  0.00    +0.093 C 
BRANCH  18  19
ATOM     19  N   UNL     1     -12.733   8.962  71.974  0.00  0.00    -0.215 NA
BRANCH  19  20
ATOM     20  C   UNL     1     -12.680   7.633  71.371  0.00  0.00    +0.126 C 
BRANCH  20  21
ATOM     21  C   UNL     1     -11.143   7.133  71.747  0.00  0.00    +0.192 C 
ATOM     22  O   UNL     1     -11.033   8.166  72.869  0.00  0.00    -0.217 OA
BRANCH  21  23
ATOM     23  C   UNL     1     -10.494   8.165  70.666  0.00  0.00    +0.009 A 
ATOM     24  C   UNL     1      -9.373   8.821  71.140  0.00  0.00    -0.002 A 
ATOM     25  C   UNL     1      -8.587   9.487  70.207  0.00  0.00    -0.000 A 
ATOM     26  C   UNL     1      -8.522   8.894  68.952  0.00  0.00    -0.000 A 
ATOM     27  C   UNL     1      -9.507   8.013  68.524  0.00  0.00    -0.000 A 
ATOM     28  C   UNL     1     -10.440   7.527  69.431  0.00  0.00    -0.002 A 
ENDBRANCH  21  23
ENDBRANCH  20  21
ENDBRANCH  19  20
ENDBRANCH  18  19
ENDBRANCH  17  18
ENDBRANCH   4  17
TORSDOF 9
ENDMDL
MODEL 9
REMARK VINA RESULT:      -6.6      4.548      6.704
REMARK  Name = 
REMARK  9 active torsions:
REMARK  status: ('A' for Active; 'I' for Inactive)
REMARK    1  A    between atoms: C_4  and  C_5
REMARK    2  A    between atoms: C_5  and  C_6
REMARK    3  A    between atoms: N_8  and  C_9
REMARK    4  A    between atoms: C_12  and  C_13
REMARK    5  A    between atoms: C_13  and  C_14
REMARK    6  A    between atoms: C_14  and  N_15
REMARK    7  A    between atoms: N_15  and  C_16
REMARK    8  A    between atoms: C_16  and  C_17
REMARK    9  A    between atoms: C_17  and  C_19
REMARK                            x       y       z     vdW  Elec       q    Type
REMARK                         _______ _______ _______ _____ _____    ______ ____
ROOT
ATOM      1  C   UNL     1     -10.407  12.546  68.603  0.00  0.00    +0.073 A 
ATOM      2  C   UNL     1     -11.416  11.715  69.004  0.00  0.00    +0.016 A 
ATOM      3  C   UNL     1     -11.390  10.421  68.496  0.00  0.00    -0.003 A 
ATOM      4  C   UNL     1     -10.644  10.138  67.358  0.00  0.00    -0.021 A 
ATOM      5  C   UNL     1      -9.518  10.909  67.120  0.00  0.00    -0.003 A 
ATOM      6  C   UNL     1      -9.319  12.041  67.900  0.00  0.00    +0.016 A 
ENDROOT
BRANCH   1   8
ATOM      7  C   UNL     1     -11.685  14.579  68.622  0.00  0.00    +0.252 C 
ATOM      8  N   UNL     1     -10.401  13.961  68.806  0.00  0.00    -0.179 NA
ATOM      9  O   UNL     1     -12.050  14.524  67.407  0.00  0.00    -0.273 OA
BRANCH   7  10
ATOM     10  C   UNL     1     -11.852  15.889  69.330  0.00  0.00    +0.133 C 
BRANCH  10  15
ATOM     11  N   UNL     1     -12.440  16.678  73.968  0.00  0.00    -0.100 NA
ATOM     12  C   UNL     1     -12.556  15.992  72.903  0.00  0.00    +0.200 A 
ATOM     13  S   UNL     1     -13.724  14.802  72.494  0.00  0.00    -0.048 S 
ATOM     14  C   UNL     1     -13.210  14.502  70.880  0.00  0.00    +0.053 A 
ATOM     15  C   UNL     1     -12.313  15.558  70.723  0.00  0.00    +0.077 A 
ATOM     16  N   UNL     1     -11.695  15.845  71.868  0.00  0.00    -0.225 NA
ENDBRANCH  10  15
ENDBRANCH   7  10
ENDBRANCH   1   8
BRANCH   4  17
ATOM     17  C   UNL     1     -10.542   8.685  67.010  0.00  0.00    +0.045 C 
BRANCH  17  18
ATOM     18  C   UNL     1      -9.336   8.155  67.777  0.00  0.00    +0.093 C 
BRANCH  18  19
ATOM     19  N   UNL     1      -9.847   7.112  68.657  0.00  0.00    -0.215 NA
BRANCH  19  20
ATOM     20  C   UNL     1      -9.840   7.543  70.051  0.00  0.00    +0.126 C 
BRANCH  20  21
ATOM     21  C   UNL     1     -10.845   6.435  70.770  0.00  0.00    +0.192 C 
ATOM     22  O   UNL     1     -11.341   5.936  69.413  0.00  0.00    -0.217 OA
BRANCH  21  23
ATOM     23  C   UNL     1     -12.052   7.524  70.868  0.00  0.00    +0.009 A 
ATOM     24  C   UNL     1     -13.250   6.978  71.288  0.00  0.00    -0.002 A 
ATOM     25  C   UNL     1     -14.247   7.863  71.683  0.00  0.00    -0.000 A 
ATOM     26  C   UNL     1     -13.801   9.025  72.300  0.00  0.00    -0.000 A 
ATOM     27  C   UNL     1     -12.503   9.484  72.110  0.00  0.00    -0.000 A 
ATOM     28  C   UNL     1     -11.563   8.664  71.499  0.00  0.00    -0.002 A 
ENDBRANCH  21  23
ENDBRANCH  20  21
ENDBRANCH  19  20
ENDBRANCH  18  19
ENDBRANCH  17  18
ENDBRANCH   4  17
TORSDOF 9
ENDMDL
