MODEL 1
REMARK VINA RESULT:      -2.8      0.000      0.000
REMARK  Name = 
REMARK  0 active torsions:
REMARK  status: ('A' for Active; 'I' for Inactive)
REMARK                            x       y       z     vdW  Elec       q    Type
REMARK                         _______ _______ _______ _____ _____    ______ ____
ROOT
ATOM      1  O   UNL     1      -5.448  20.834  71.078  0.00  0.00    -0.197 OA
ATOM      2  C   UNL     1      -4.453  21.091  71.812  0.00  0.00    +0.592 C 
ATOM      3  O   UNL     1      -3.731  20.082  72.431  0.00  0.00    -0.197 OA
ATOM      4  O   UNL     1      -4.410  22.368  72.366  0.00  0.00    -0.197 OA
ENDROOT
TORSDOF 0
ENDMDL
MODEL 2
REMARK VINA RESULT:      -2.8      0.610      1.893
REMARK  Name = 
REMARK  0 active torsions:
REMARK  status: ('A' for Active; 'I' for Inactive)
REMARK                            x       y       z     vdW  Elec       q    Type
REMARK                         _______ _______ _______ _____ _____    ______ ____
ROOT
ATOM      1  O   UNL     1      -4.367  22.117  71.656  0.00  0.00    -0.197 OA
ATOM      2  C   UNL     1      -4.643  20.892  71.790  0.00  0.00    +0.592 C 
ATOM      3  O   UNL     1      -5.952  20.436  71.732  0.00  0.00    -0.197 OA
ATOM      4  O   UNL     1      -3.705  20.119  72.469  0.00  0.00    -0.197 OA
ENDROOT
TORSDOF 0
ENDMDL
MODEL 3
REMARK VINA RESULT:      -2.8      0.600      2.062
REMARK  Name = 
REMARK  0 active torsions:
REMARK  status: ('A' for Active; 'I' for Inactive)
REMARK                            x       y       z     vdW  Elec       q    Type
REMARK                         _______ _______ _______ _____ _____    ______ ____
ROOT
ATOM      1  O   UNL     1      -3.827  20.041  72.419  0.00  0.00    -0.197 OA
ATOM      2  C   UNL     1      -4.619  20.827  71.827  0.00  0.00    +0.592 C 
ATOM      3  O   UNL     1      -4.341  22.181  71.712  0.00  0.00    -0.197 OA
ATOM      4  O   UNL     1      -5.947  20.416  71.742  0.00  0.00    -0.197 OA
ENDROOT
TORSDOF 0
ENDMDL
MODEL 4
REMARK VINA RESULT:      -2.7     11.243     11.775
REMARK  Name = 
REMARK  0 active torsions:
REMARK  status: ('A' for Active; 'I' for Inactive)
REMARK                            x       y       z     vdW  Elec       q    Type
REMARK                         _______ _______ _______ _____ _____    ______ ____
ROOT
ATOM      1  O   UNL     1     -10.464  14.889  64.901  0.00  0.00    -0.197 OA
ATOM      2  C   UNL     1     -11.503  15.506  64.533  0.00  0.00    +0.592 C 
ATOM      3  O   UNL     1     -12.596  14.833  64.009  0.00  0.00    -0.197 OA
ATOM      4  O   UNL     1     -11.338  16.851  64.210  0.00  0.00    -0.197 OA
ENDROOT
TORSDOF 0
ENDMDL
MODEL 5
REMARK VINA RESULT:      -2.7     11.244     11.750
REMARK  Name = 
REMARK  0 active torsions:
REMARK  status: ('A' for Active; 'I' for Inactive)
REMARK                            x       y       z     vdW  Elec       q    Type
REMARK                         _______ _______ _______ _____ _____    ______ ____
ROOT
ATOM      1  O   UNL     1     -11.366  16.799  64.167  0.00  0.00    -0.197 OA
ATOM      2  C   UNL     1     -11.480  15.590  64.513  0.00  0.00    +0.592 C 
ATOM      3  O   UNL     1     -10.381  14.848  64.919  0.00  0.00    -0.197 OA
ATOM      4  O   UNL     1     -12.589  14.909  64.018  0.00  0.00    -0.197 OA
ENDROOT
TORSDOF 0
ENDMDL
MODEL 6
REMARK VINA RESULT:      -2.7     11.498     12.050
REMARK  Name = 
REMARK  0 active torsions:
REMARK  status: ('A' for Active; 'I' for Inactive)
REMARK                            x       y       z     vdW  Elec       q    Type
REMARK                         _______ _______ _______ _____ _____    ______ ____
ROOT
ATOM      1  O   UNL     1     -12.609  14.559  63.960  0.00  0.00    -0.197 OA
ATOM      2  C   UNL     1     -11.695  15.323  64.378  0.00  0.00    +0.592 C 
ATOM      3  O   UNL     1     -11.604  16.640  63.952  0.00  0.00    -0.197 OA
ATOM      4  O   UNL     1     -10.543  14.703  64.855  0.00  0.00    -0.197 OA
ENDROOT
TORSDOF 0
ENDMDL
MODEL 7
REMARK VINA RESULT:      -2.7     10.310     10.845
REMARK  Name = 
REMARK  0 active torsions:
REMARK  status: ('A' for Active; 'I' for Inactive)
REMARK                            x       y       z     vdW  Elec       q    Type
REMARK                         _______ _______ _______ _____ _____    ______ ____
ROOT
ATOM      1  O   UNL     1     -14.500  15.914  72.127  0.00  0.00    -0.197 OA
ATOM      2  C   UNL     1     -13.593  15.417  72.852  0.00  0.00    +0.592 C 
ATOM      3  O   UNL     1     -13.446  14.044  72.986  0.00  0.00    -0.197 OA
ATOM      4  O   UNL     1     -13.095  16.235  73.863  0.00  0.00    -0.197 OA
ENDROOT
TORSDOF 0
ENDMDL
MODEL 8
REMARK VINA RESULT:      -2.6     10.124     10.733
REMARK  Name = 
REMARK  0 active torsions:
REMARK  status: ('A' for Active; 'I' for Inactive)
REMARK                            x       y       z     vdW  Elec       q    Type
REMARK                         _______ _______ _______ _____ _____    ______ ____
ROOT
ATOM      1  O   UNL     1     -13.225  14.255  73.178  0.00  0.00    -0.197 OA
ATOM      2  C   UNL     1     -13.353  15.511  73.140  0.00  0.00    +0.592 C 
ATOM      3  O   UNL     1     -12.832  16.321  74.138  0.00  0.00    -0.197 OA
ATOM      4  O   UNL     1     -14.413  16.000  72.380  0.00  0.00    -0.197 OA
ENDROOT
TORSDOF 0
ENDMDL
MODEL 9
REMARK VINA RESULT:      -2.6     13.170     13.678
REMARK  Name = 
REMARK  0 active torsions:
REMARK  status: ('A' for Active; 'I' for Inactive)
REMARK                            x       y       z     vdW  Elec       q    Type
REMARK                         _______ _______ _______ _____ _____    ______ ____
ROOT
ATOM      1  O   UNL     1     -13.155  14.051  65.187  0.00  0.00    -0.197 OA
ATOM      2  C   UNL     1     -12.665  12.913  64.945  0.00  0.00    +0.592 C 
ATOM      3  O   UNL     1     -12.989  12.218  63.789  0.00  0.00    -0.197 OA
ATOM      4  O   UNL     1     -12.214  12.189  66.046  0.00  0.00    -0.197 OA
ENDROOT
TORSDOF 0
ENDMDL
