MODEL 1
REMARK VINA RESULT:      -5.9      0.000      0.000
REMARK  Name = 
REMARK  3 active torsions:
REMARK  status: ('A' for Active; 'I' for Inactive)
REMARK    1  A    between atoms: C_2  and  C_4
REMARK    2  A    between atoms: N_7  and  C1*_8
REMARK    3  A    between atoms: C4*_10  and  C5*_11
REMARK                            x       y       z     vdW  Elec       q    Type
REMARK                         _______ _______ _______ _____ _____    ______ ____
ROOT
ATOM      1  C1* UNL     1     -10.771  13.536  66.795  0.00  0.00    +0.256 C 
ATOM      2  C2* UNL     1     -11.815  12.411  65.942  0.00  0.00    +0.235 C 
ATOM      3  O2* UNL     1     -10.732  12.220  64.893  0.00  0.00    -0.215 OA
ATOM      4  C3* UNL     1     -12.679  13.607  65.060  0.00  0.00    +0.216 C 
ATOM      5  O3* UNL     1     -12.558  12.914  63.709  0.00  0.00    -0.218 OA
ATOM      6  C4* UNL     1     -11.187  14.485  64.859  0.00  0.00    +0.183 C 
ATOM      7  O4* UNL     1     -11.492  14.810  66.330  0.00  0.00    -0.330 OA
ENDROOT
BRANCH   1  10
ATOM      8  C   UNL     1     -12.443  14.407  69.903  0.00  0.00    +0.240 A 
ATOM      9  N   UNL     1     -12.127  14.602  68.622  0.00  0.00    -0.141 NA
ATOM     10  N   UNL     1     -11.655  13.459  68.152  0.00  0.00    -0.202 N 
ATOM     11  C   UNL     1     -11.241  12.773  69.198  0.00  0.00    +0.199 A 
ATOM     12  N   UNL     1     -12.110  13.122  70.182  0.00  0.00    -0.199 NA
BRANCH   8  14
ATOM     13  N   UNL     1     -13.806  15.655  71.635  0.00  0.00    -0.081 NA
ATOM     14  C   UNL     1     -12.624  15.519  70.847  0.00  0.00    +0.322 C 
ATOM     15  O   UNL     1     -11.586  16.215  71.064  0.00  0.00    -0.263 OA
ENDBRANCH   8  14
ENDBRANCH   1  10
BRANCH   6  16
ATOM     16  C5* UNL     1     -12.060  15.827  64.360  0.00  0.00    +0.214 C 
ATOM     17  O5* UNL     1     -11.123  16.854  64.357  0.00  0.00    -0.218 OA
ENDBRANCH   6  16
TORSDOF 3
ENDMDL
MODEL 2
REMARK VINA RESULT:      -5.7      2.005      2.991
REMARK  Name = 
REMARK  3 active torsions:
REMARK  status: ('A' for Active; 'I' for Inactive)
REMARK    1  A    between atoms: C_2  and  C_4
REMARK    2  A    between atoms: N_7  and  C1*_8
REMARK    3  A    between atoms: C4*_10  and  C5*_11
REMARK                            x       y       z     vdW  Elec       q    Type
REMARK                         _______ _______ _______ _____ _____    ______ ____
ROOT
ATOM      1  C1* UNL     1     -11.109  15.569  68.147  0.00  0.00    +0.256 C 
ATOM      2  C2* UNL     1      -9.633  14.616  68.153  0.00  0.00    +0.235 C 
ATOM      3  O2* UNL     1      -9.215  15.279  66.850  0.00  0.00    -0.215 OA
ATOM      4  C3* UNL     1     -10.318  13.226  67.410  0.00  0.00    +0.216 C 
ATOM      5  O3* UNL     1      -9.209  13.043  66.383  0.00  0.00    -0.218 OA
ATOM      6  C4* UNL     1     -11.244  14.279  66.375  0.00  0.00    +0.183 C 
ATOM      7  O4* UNL     1     -12.032  14.432  67.685  0.00  0.00    -0.330 OA
ENDROOT
BRANCH   1  10
ATOM      8  C   UNL     1     -12.810  14.807  71.268  0.00  0.00    +0.240 A 
ATOM      9  N   UNL     1     -12.525  14.599  69.981  0.00  0.00    -0.141 NA
ATOM     10  N   UNL     1     -11.414  15.262  69.710  0.00  0.00    -0.202 N 
ATOM     11  C   UNL     1     -11.315  16.207  70.623  0.00  0.00    +0.199 A 
ATOM     12  N   UNL     1     -11.850  15.642  71.736  0.00  0.00    -0.199 NA
BRANCH   8  14
ATOM     13  N   UNL     1     -15.286  15.319  71.412  0.00  0.00    -0.081 NA
ATOM     14  C   UNL     1     -14.148  14.565  71.827  0.00  0.00    +0.322 C 
ATOM     15  O   UNL     1     -14.254  13.518  72.534  0.00  0.00    -0.263 OA
ENDBRANCH   8  14
ENDBRANCH   1  10
BRANCH   6  16
ATOM     16  C5* UNL     1     -12.200  12.976  65.927  0.00  0.00    +0.214 C 
ATOM     17  O5* UNL     1     -13.121  13.525  65.042  0.00  0.00    -0.218 OA
ENDBRANCH   6  16
TORSDOF 3
ENDMDL
MODEL 3
REMARK VINA RESULT:      -5.7      2.380      6.190
REMARK  Name = 
REMARK  3 active torsions:
REMARK  status: ('A' for Active; 'I' for Inactive)
REMARK    1  A    between atoms: C_2  and  C_4
REMARK    2  A    between atoms: N_7  and  C1*_8
REMARK    3  A    between atoms: C4*_10  and  C5*_11
REMARK                            x       y       z     vdW  Elec       q    Type
REMARK                         _______ _______ _______ _____ _____    ______ ____
ROOT
ATOM      1  C1* UNL     1     -11.291  14.718  70.350  0.00  0.00    +0.256 C 
ATOM      2  C2* UNL     1     -12.343  16.078  70.708  0.00  0.00    +0.235 C 
ATOM      3  O2* UNL     1     -11.701  16.197  72.081  0.00  0.00    -0.215 OA
ATOM      4  C3* UNL     1     -13.677  15.133  71.240  0.00  0.00    +0.216 C 
ATOM      5  O3* UNL     1     -13.928  15.931  72.513  0.00  0.00    -0.218 OA
ATOM      6  C4* UNL     1     -12.554  14.050  72.017  0.00  0.00    +0.183 C 
ATOM      7  O4* UNL     1     -12.358  13.631  70.552  0.00  0.00    -0.330 OA
ENDROOT
BRANCH   1  10
ATOM      8  C   UNL     1     -11.915  13.813  66.885  0.00  0.00    +0.240 A 
ATOM      9  N   UNL     1     -12.131  13.729  68.199  0.00  0.00    -0.141 NA
ATOM     10  N   UNL     1     -11.589  14.797  68.758  0.00  0.00    -0.202 N 
ATOM     11  C   UNL     1     -10.675  15.233  67.914  0.00  0.00    +0.199 A 
ATOM     12  N   UNL     1     -11.197  14.947  66.693  0.00  0.00    -0.199 NA
BRANCH   8  14
ATOM     13  N   UNL     1     -12.908  12.630  64.878  0.00  0.00    -0.081 NA
ATOM     14  C   UNL     1     -12.019  12.648  65.994  0.00  0.00    +0.322 C 
ATOM     15  O   UNL     1     -11.127  11.763  66.159  0.00  0.00    -0.263 OA
ENDBRANCH   8  14
ENDBRANCH   1  10
BRANCH   6  16
ATOM     16  C5* UNL     1     -13.785  12.925  72.197  0.00  0.00    +0.214 C 
ATOM     17  O5* UNL     1     -13.183  11.716  71.867  0.00  0.00    -0.218 OA
ENDBRANCH   6  16
TORSDOF 3
ENDMDL
MODEL 4
REMARK VINA RESULT:      -5.6      6.241      7.179
REMARK  Name = 
REMARK  3 active torsions:
REMARK  status: ('A' for Active; 'I' for Inactive)
REMARK    1  A    between atoms: C_2  and  C_4
REMARK    2  A    between atoms: N_7  and  C1*_8
REMARK    3  A    between atoms: C4*_10  and  C5*_11
REMARK                            x       y       z     vdW  Elec       q    Type
REMARK                         _______ _______ _______ _____ _____    ______ ____
ROOT
ATOM      1  C1* UNL     1      -9.018  19.629  67.767  0.00  0.00    +0.256 C 
ATOM      2  C2* UNL     1      -8.651  18.736  66.299  0.00  0.00    +0.235 C 
ATOM      3  O2* UNL     1     -10.052  19.027  65.787  0.00  0.00    -0.215 OA
ATOM      4  C3* UNL     1      -9.034  17.186  66.936  0.00  0.00    +0.216 C 
ATOM      5  O3* UNL     1      -9.893  16.748  65.757  0.00  0.00    -0.218 OA
ATOM      6  C4* UNL     1     -10.378  17.905  67.781  0.00  0.00    +0.183 C 
ATOM      7  O4* UNL     1      -9.217  18.395  68.660  0.00  0.00    -0.330 OA
ENDROOT
BRANCH   1  10
ATOM      8  C   UNL     1      -5.954  19.949  69.697  0.00  0.00    +0.240 A 
ATOM      9  N   UNL     1      -7.138  19.402  69.418  0.00  0.00    -0.141 NA
ATOM     10  N   UNL     1      -7.455  19.752  68.183  0.00  0.00    -0.202 N 
ATOM     11  C   UNL     1      -6.763  20.843  67.919  0.00  0.00    +0.199 A 
ATOM     12  N   UNL     1      -5.601  20.663  68.599  0.00  0.00    -0.199 NA
BRANCH   8  14
ATOM     13  N   UNL     1      -5.084  18.992  71.875  0.00  0.00    -0.081 NA
ATOM     14  C   UNL     1      -5.466  20.111  71.074  0.00  0.00    +0.322 C 
ATOM     15  O   UNL     1      -5.211  21.304  71.418  0.00  0.00    -0.263 OA
ENDBRANCH   8  14
ENDBRANCH   1  10
BRANCH   6  16
ATOM     16  C5* UNL     1     -10.521  16.515  68.708  0.00  0.00    +0.214 C 
ATOM     17  O5* UNL     1     -11.883  16.425  68.970  0.00  0.00    -0.218 OA
ENDBRANCH   6  16
TORSDOF 3
ENDMDL
MODEL 5
REMARK VINA RESULT:      -5.5      7.838      8.591
REMARK  Name = 
REMARK  3 active torsions:
REMARK  status: ('A' for Active; 'I' for Inactive)
REMARK    1  A    between atoms: C_2  and  C_4
REMARK    2  A    between atoms: N_7  and  C1*_8
REMARK    3  A    between atoms: C4*_10  and  C5*_11
REMARK                            x       y       z     vdW  Elec       q    Type
REMARK                         _______ _______ _______ _____ _____    ______ ____
ROOT
ATOM      1  C1* UNL     1      -6.627  20.586  67.107  0.00  0.00    +0.256 C 
ATOM      2  C2* UNL     1      -6.437  19.066  66.247  0.00  0.00    +0.235 C 
ATOM      3  O2* UNL     1      -7.323  19.600  65.134  0.00  0.00    -0.215 OA
ATOM      4  C3* UNL     1      -7.699  18.239  67.070  0.00  0.00    +0.216 C 
ATOM      5  O3* UNL     1      -8.355  17.679  65.815  0.00  0.00    -0.218 OA
ATOM      6  C4* UNL     1      -8.638  19.706  67.031  0.00  0.00    +0.183 C 
ATOM      7  O4* UNL     1      -7.636  20.060  68.141  0.00  0.00    -0.330 OA
ENDROOT
BRANCH   1  10
ATOM      8  C   UNL     1      -4.416  20.512  69.992  0.00  0.00    +0.240 A 
ATOM      9  N   UNL     1      -5.599  20.376  69.390  0.00  0.00    -0.141 NA
ATOM     10  N   UNL     1      -5.373  20.284  68.091  0.00  0.00    -0.202 N 
ATOM     11  C   UNL     1      -4.194  20.834  67.880  0.00  0.00    +0.199 A 
ATOM     12  N   UNL     1      -3.489  20.533  69.002  0.00  0.00    -0.199 NA
BRANCH   8  14
ATOM     13  N   UNL     1      -3.691  20.253  72.405  0.00  0.00    -0.081 NA
ATOM     14  C   UNL     1      -4.285  21.027  71.363  0.00  0.00    +0.322 C 
ATOM     15  O   UNL     1      -4.538  22.261  71.500  0.00  0.00    -0.263 OA
ENDBRANCH   8  14
ENDBRANCH   1  10
BRANCH   6  16
ATOM     16  C5* UNL     1      -9.688  19.048  68.160  0.00  0.00    +0.214 C 
ATOM     17  O5* UNL     1     -10.948  19.279  67.620  0.00  0.00    -0.218 OA
ENDBRANCH   6  16
TORSDOF 3
ENDMDL
MODEL 6
REMARK VINA RESULT:      -5.5      3.084      3.903
REMARK  Name = 
REMARK  3 active torsions:
REMARK  status: ('A' for Active; 'I' for Inactive)
REMARK    1  A    between atoms: C_2  and  C_4
REMARK    2  A    between atoms: N_7  and  C1*_8
REMARK    3  A    between atoms: C4*_10  and  C5*_11
REMARK                            x       y       z     vdW  Elec       q    Type
REMARK                         _______ _______ _______ _____ _____    ______ ____
ROOT
ATOM      1  C1* UNL     1      -9.872  15.765  68.599  0.00  0.00    +0.256 C 
ATOM      2  C2* UNL     1     -10.535  16.092  67.006  0.00  0.00    +0.235 C 
ATOM      3  O2* UNL     1      -9.136  15.994  66.418  0.00  0.00    -0.215 OA
ATOM      4  C3* UNL     1     -10.522  17.804  67.158  0.00  0.00    +0.216 C 
ATOM      5  O3* UNL     1      -9.869  18.070  65.808  0.00  0.00    -0.218 OA
ATOM      6  C4* UNL     1      -8.995  17.683  67.990  0.00  0.00    +0.183 C 
ATOM      7  O4* UNL     1      -9.943  17.214  69.104  0.00  0.00    -0.330 OA
ENDROOT
BRANCH   1  10
ATOM      8  C   UNL     1     -12.703  15.489  70.863  0.00  0.00    +0.240 A 
ATOM      9  N   UNL     1     -11.738  16.161  70.235  0.00  0.00    -0.141 NA
ATOM     10  N   UNL     1     -11.327  15.414  69.225  0.00  0.00    -0.202 N 
ATOM     11  C   UNL     1     -11.659  14.174  69.524  0.00  0.00    +0.199 A 
ATOM     12  N   UNL     1     -12.823  14.305  70.211  0.00  0.00    -0.199 NA
BRANCH   8  14
ATOM     13  N   UNL     1     -12.191  16.223  73.232  0.00  0.00    -0.081 NA
ATOM     14  C   UNL     1     -13.125  15.812  72.234  0.00  0.00    +0.322 C 
ATOM     15  O   UNL     1     -14.378  15.902  72.405  0.00  0.00    -0.263 OA
ENDBRANCH   8  14
ENDBRANCH   1  10
BRANCH   6  16
ATOM     16  C5* UNL     1      -9.157  19.275  68.491  0.00  0.00    +0.214 C 
ATOM     17  O5* UNL     1      -7.848  19.701  68.682  0.00  0.00    -0.218 OA
ENDBRANCH   6  16
TORSDOF 3
ENDMDL
MODEL 7
REMARK VINA RESULT:      -5.4      5.623      7.385
REMARK  Name = 
REMARK  3 active torsions:
REMARK  status: ('A' for Active; 'I' for Inactive)
REMARK    1  A    between atoms: C_2  and  C_4
REMARK    2  A    between atoms: N_7  and  C1*_8
REMARK    3  A    between atoms: C4*_10  and  C5*_11
REMARK                            x       y       z     vdW  Elec       q    Type
REMARK                         _______ _______ _______ _____ _____    ______ ____
ROOT
ATOM      1  C1* UNL     1      -8.163  20.041  66.370  0.00  0.00    +0.256 C 
ATOM      2  C2* UNL     1      -7.085  19.867  67.745  0.00  0.00    +0.235 C 
ATOM      3  O2* UNL     1      -6.625  21.303  67.550  0.00  0.00    -0.215 OA
ATOM      4  C3* UNL     1      -5.787  19.165  66.863  0.00  0.00    +0.216 C 
ATOM      5  O3* UNL     1      -4.706  20.069  67.442  0.00  0.00    -0.218 OA
ATOM      6  C4* UNL     1      -6.138  20.254  65.548  0.00  0.00    +0.183 C 
ATOM      7  O4* UNL     1      -7.291  19.253  65.380  0.00  0.00    -0.330 OA
ENDROOT
BRANCH   1  10
ATOM      8  C   UNL     1     -10.131  16.991  66.168  0.00  0.00    +0.240 A 
ATOM      9  N   UNL     1      -9.092  17.765  65.851  0.00  0.00    -0.141 NA
ATOM     10  N   UNL     1      -9.016  18.718  66.763  0.00  0.00    -0.202 N 
ATOM     11  C   UNL     1     -10.216  18.816  67.298  0.00  0.00    +0.199 A 
ATOM     12  N   UNL     1     -10.686  17.541  67.277  0.00  0.00    -0.199 NA
BRANCH   8  14
ATOM     13  N   UNL     1     -10.908  14.687  65.459  0.00  0.00    -0.081 NA
ATOM     14  C   UNL     1     -10.761  16.083  65.199  0.00  0.00    +0.322 C 
ATOM     15  O   UNL     1     -11.345  16.652  64.228  0.00  0.00    -0.263 OA
ENDBRANCH   8  14
ENDBRANCH   1  10
BRANCH   6  16
ATOM     16  C5* UNL     1      -5.163  19.333  64.543  0.00  0.00    +0.214 C 
ATOM     17  O5* UNL     1      -5.918  19.190  63.384  0.00  0.00    -0.218 OA
ENDBRANCH   6  16
TORSDOF 3
ENDMDL
MODEL 8
REMARK VINA RESULT:      -5.3      2.941      4.216
REMARK  Name = 
REMARK  3 active torsions:
REMARK  status: ('A' for Active; 'I' for Inactive)
REMARK    1  A    between atoms: C_2  and  C_4
REMARK    2  A    between atoms: N_7  and  C1*_8
REMARK    3  A    between atoms: C4*_10  and  C5*_11
REMARK                            x       y       z     vdW  Elec       q    Type
REMARK                         _______ _______ _______ _____ _____    ______ ____
ROOT
ATOM      1  C1* UNL     1     -11.727  13.766  65.179  0.00  0.00    +0.256 C 
ATOM      2  C2* UNL     1     -10.408  12.999  64.309  0.00  0.00    +0.235 C 
ATOM      3  O2* UNL     1     -11.382  11.961  63.774  0.00  0.00    -0.215 OA
ATOM      4  C3* UNL     1      -9.863  12.039  65.627  0.00  0.00    +0.216 C 
ATOM      5  O3* UNL     1      -9.770  10.740  64.838  0.00  0.00    -0.218 OA
ATOM      6  C4* UNL     1     -11.526  11.771  66.073  0.00  0.00    +0.183 C 
ATOM      7  O4* UNL     1     -11.349  13.216  66.562  0.00  0.00    -0.330 OA
ENDROOT
BRANCH   1  10
ATOM      8  C   UNL     1     -10.434  16.832  66.642  0.00  0.00    +0.240 A 
ATOM      9  N   UNL     1     -10.768  15.541  66.675  0.00  0.00    -0.141 NA
ATOM     10  N   UNL     1     -10.884  15.130  65.425  0.00  0.00    -0.202 N 
ATOM     11  C   UNL     1     -11.105  16.208  64.699  0.00  0.00    +0.199 A 
ATOM     12  N   UNL     1     -10.392  17.176  65.330  0.00  0.00    -0.199 NA
BRANCH   8  14
ATOM     13  N   UNL     1     -10.766  19.128  67.657  0.00  0.00    -0.081 NA
ATOM     14  C   UNL     1     -10.597  17.719  67.803  0.00  0.00    +0.322 C 
ATOM     15  O   UNL     1     -10.786  17.128  68.909  0.00  0.00    -0.263 OA
ENDBRANCH   8  14
ENDBRANCH   1  10
BRANCH   6  16
ATOM     16  C5* UNL     1     -11.018  11.182  67.559  0.00  0.00    +0.214 C 
ATOM     17  O5* UNL     1     -12.160  11.240  68.350  0.00  0.00    -0.218 OA
ENDBRANCH   6  16
TORSDOF 3
ENDMDL
MODEL 9
REMARK VINA RESULT:      -5.3      2.916      4.343
REMARK  Name = 
REMARK  3 active torsions:
REMARK  status: ('A' for Active; 'I' for Inactive)
REMARK    1  A    between atoms: C_2  and  C_4
REMARK    2  A    between atoms: N_7  and  C1*_8
REMARK    3  A    between atoms: C4*_10  and  C5*_11
REMARK                            x       y       z     vdW  Elec       q    Type
REMARK                         _______ _______ _______ _____ _____    ______ ____
ROOT
ATOM      1  C1* UNL     1     -11.299  14.758  69.431  0.00  0.00    +0.256 C 
ATOM      2  C2* UNL     1     -11.615  15.995  68.225  0.00  0.00    +0.235 C 
ATOM      3  O2* UNL     1     -11.120  15.049  67.143  0.00  0.00    -0.215 OA
ATOM      4  C3* UNL     1     -10.116  16.814  68.416  0.00  0.00    +0.216 C 
ATOM      5  O3* UNL     1      -9.802  16.902  66.928  0.00  0.00    -0.218 OA
ATOM      6  C4* UNL     1      -9.334  15.266  68.594  0.00  0.00    +0.183 C 
ATOM      7  O4* UNL     1     -10.005  15.387  69.971  0.00  0.00    -0.330 OA
ENDROOT
BRANCH   1  10
ATOM      8  C   UNL     1     -12.572  15.988  72.607  0.00  0.00    +0.240 A 
ATOM      9  N   UNL     1     -11.611  15.779  71.706  0.00  0.00    -0.141 NA
ATOM     10  N   UNL     1     -12.200  15.505  70.555  0.00  0.00    -0.202 N 
ATOM     11  C   UNL     1     -13.411  15.078  70.852  0.00  0.00    +0.199 A 
ATOM     12  N   UNL     1     -13.746  15.792  71.957  0.00  0.00    -0.199 NA
BRANCH   8  14
ATOM     13  N   UNL     1     -12.333  17.103  74.868  0.00  0.00    -0.081 NA
ATOM     14  C   UNL     1     -12.321  15.931  74.054  0.00  0.00    +0.322 C 
ATOM     15  O   UNL     1     -12.303  14.765  74.552  0.00  0.00    -0.263 OA
ENDBRANCH   8  14
ENDBRANCH   1  10
BRANCH   6  16
ATOM     16  C5* UNL     1      -7.963  16.041  69.171  0.00  0.00    +0.214 C 
ATOM     17  O5* UNL     1      -7.240  15.026  69.787  0.00  0.00    -0.218 OA
ENDBRANCH   6  16
TORSDOF 3
ENDMDL
