MODEL 1
REMARK VINA RESULT:      -8.2      0.000      0.000
REMARK  Name = 
REMARK  4 active torsions:
REMARK  status: ('A' for Active; 'I' for Inactive)
REMARK    1  A    between atoms: C_5  and  C_6
REMARK    2  A    between atoms: C_8  and  C_9
REMARK    3  A    between atoms: N_14  and  C_15
REMARK    4  A    between atoms: C_18  and  S_19
REMARK                            x       y       z     vdW  Elec       q    Type
REMARK                         _______ _______ _______ _____ _____    ______ ____
ROOT
ATOM      1  C   UNL     1     -10.623  16.275  66.531  0.00  0.00    +0.084 A 
ATOM      2  N   UNL     1     -10.798  16.462  67.853  0.00  0.00    -0.230 N 
ATOM      3  N   UNL     1     -10.931  17.784  67.972  0.00  0.00    -0.161 NA
ATOM      4  C   UNL     1     -10.188  18.407  67.027  0.00  0.00    +0.174 A 
ATOM      5  C   UNL     1      -9.920  17.397  66.109  0.00  0.00    +0.044 A 
ENDROOT
BRANCH   1  10
ATOM      6  C   UNL     1     -10.991  11.508  63.500  0.00  0.00    +0.031 C 
ATOM      7  C   UNL     1     -11.017  12.527  64.567  0.00  0.00    -0.022 A 
ATOM      8  C   UNL     1      -9.997  12.726  65.475  0.00  0.00    -0.004 A 
ATOM      9  C   UNL     1      -9.801  13.954  66.095  0.00  0.00    +0.001 A 
ATOM     10  C   UNL     1     -10.670  14.981  65.854  0.00  0.00    +0.018 A 
ATOM     11  C   UNL     1     -11.848  14.676  65.184  0.00  0.00    +0.001 A 
ATOM     12  C   UNL     1     -12.015  13.475  64.540  0.00  0.00    -0.004 A 
ENDBRANCH   1  10
BRANCH   2  13
ATOM     13  C   UNL     1     -10.951  15.476  68.885  0.00  0.00    +0.083 A 
ATOM     14  C   UNL     1     -10.543  15.726  70.191  0.00  0.00    +0.021 A 
ATOM     15  C   UNL     1     -11.312  15.332  71.281  0.00  0.00    +0.022 A 
ATOM     16  C   UNL     1     -12.501  14.639  71.079  0.00  0.00    +0.125 A 
ATOM     17  C   UNL     1     -12.605  13.993  69.852  0.00  0.00    +0.022 A 
ATOM     18  C   UNL     1     -11.863  14.434  68.761  0.00  0.00    +0.021 A 
BRANCH  16  19
ATOM     19  S   UNL     1     -13.870  14.909  72.125  0.00  0.00    +0.093 S 
ATOM     20  O   UNL     1     -14.343  13.603  72.692  0.00  0.00    -0.150 OA
ATOM     21  O   UNL     1     -15.021  15.562  71.396  0.00  0.00    -0.150 OA
ATOM     22  N   UNL     1     -13.326  15.908  73.437  0.00  0.00    +0.039 NA
ENDBRANCH  16  19
ENDBRANCH   2  13
BRANCH   4  23
ATOM     23  C   UNL     1      -9.402  19.669  67.205  0.00  0.00    +0.437 C 
ATOM     24  F   UNL     1     -10.187  20.791  66.992  0.00  0.00    -0.164 F 
ATOM     25  F   UNL     1      -8.899  19.698  68.495  0.00  0.00    -0.164 F 
ATOM     26  F   UNL     1      -8.377  19.757  66.273  0.00  0.00    -0.164 F 
ENDBRANCH   4  23
TORSDOF 4
ENDMDL
MODEL 2
REMARK VINA RESULT:      -8.0      4.677      6.260
REMARK  Name = 
REMARK  4 active torsions:
REMARK  status: ('A' for Active; 'I' for Inactive)
REMARK    1  A    between atoms: C_5  and  C_6
REMARK    2  A    between atoms: C_8  and  C_9
REMARK    3  A    between atoms: N_14  and  C_15
REMARK    4  A    between atoms: C_18  and  S_19
REMARK                            x       y       z     vdW  Elec       q    Type
REMARK                         _______ _______ _______ _____ _____    ______ ____
ROOT
ATOM      1  C   UNL     1     -11.557  11.869  67.177  0.00  0.00    +0.084 A 
ATOM      2  N   UNL     1     -11.483  13.210  67.076  0.00  0.00    -0.230 N 
ATOM      3  N   UNL     1     -12.192  13.487  65.980  0.00  0.00    -0.161 NA
ATOM      4  C   UNL     1     -12.078  12.472  65.091  0.00  0.00    +0.174 A 
ATOM      5  C   UNL     1     -11.589  11.421  65.861  0.00  0.00    +0.044 A 
ENDROOT
BRANCH   1  10
ATOM      6  C   UNL     1     -10.437   8.667  71.708  0.00  0.00    +0.031 C 
ATOM      7  C   UNL     1     -10.519   9.753  70.712  0.00  0.00    -0.022 A 
ATOM      8  C   UNL     1      -9.563   9.993  69.747  0.00  0.00    -0.004 A 
ATOM      9  C   UNL     1      -9.876  10.632  68.553  0.00  0.00    +0.001 A 
ATOM     10  C   UNL     1     -11.146  11.092  68.343  0.00  0.00    +0.018 A 
ATOM     11  C   UNL     1     -12.005  11.112  69.434  0.00  0.00    +0.001 A 
ATOM     12  C   UNL     1     -11.704  10.444  70.594  0.00  0.00    -0.004 A 
ENDBRANCH   1  10
BRANCH   2  13
ATOM     13  C   UNL     1     -10.905  14.147  67.997  0.00  0.00    +0.083 A 
ATOM     14  C   UNL     1      -9.550  14.461  67.955  0.00  0.00    +0.021 A 
ATOM     15  C   UNL     1      -9.102  15.769  68.116  0.00  0.00    +0.022 A 
ATOM     16  C   UNL     1     -10.012  16.791  68.359  0.00  0.00    +0.125 A 
ATOM     17  C   UNL     1     -11.235  16.379  68.879  0.00  0.00    +0.022 A 
ATOM     18  C   UNL     1     -11.687  15.081  68.667  0.00  0.00    +0.021 A 
BRANCH  16  19
ATOM     19  S   UNL     1      -9.756  18.382  67.692  0.00  0.00    +0.093 S 
ATOM     20  O   UNL     1      -8.813  19.155  68.566  0.00  0.00    -0.150 OA
ATOM     21  O   UNL     1     -11.045  19.159  67.567  0.00  0.00    -0.150 OA
ATOM     22  N   UNL     1      -9.011  18.172  66.137  0.00  0.00    +0.039 NA
ENDBRANCH  16  19
ENDBRANCH   2  13
BRANCH   4  23
ATOM     23  C   UNL     1     -11.964  12.604  63.604  0.00  0.00    +0.437 C 
ATOM     24  F   UNL     1     -12.733  11.655  62.949  0.00  0.00    -0.164 F 
ATOM     25  F   UNL     1     -12.386  13.871  63.239  0.00  0.00    -0.164 F 
ATOM     26  F   UNL     1     -10.661  12.375  63.179  0.00  0.00    -0.164 F 
ENDBRANCH   4  23
TORSDOF 4
ENDMDL
MODEL 3
REMARK VINA RESULT:      -8.0      4.206      6.685
REMARK  Name = 
REMARK  4 active torsions:
REMARK  status: ('A' for Active; 'I' for Inactive)
REMARK    1  A    between atoms: C_5  and  C_6
REMARK    2  A    between atoms: C_8  and  C_9
REMARK    3  A    between atoms: N_14  and  C_15
REMARK    4  A    between atoms: C_18  and  S_19
REMARK                            x       y       z     vdW  Elec       q    Type
REMARK                         _______ _______ _______ _____ _____    ______ ____
ROOT
ATOM      1  C   UNL     1     -10.545  16.948  69.037  0.00  0.00    +0.084 A 
ATOM      2  N   UNL     1     -10.920  15.830  68.387  0.00  0.00    -0.230 N 
ATOM      3  N   UNL     1     -12.018  15.438  69.036  0.00  0.00    -0.161 NA
ATOM      4  C   UNL     1     -11.922  15.775  70.344  0.00  0.00    +0.174 A 
ATOM      5  C   UNL     1     -10.901  16.719  70.361  0.00  0.00    +0.044 A 
ENDROOT
BRANCH   1  10
ATOM      6  C   UNL     1      -6.923  20.980  67.404  0.00  0.00    +0.031 C 
ATOM      7  C   UNL     1      -7.778  19.781  67.495  0.00  0.00    -0.022 A 
ATOM      8  C   UNL     1      -7.336  18.543  67.914  0.00  0.00    -0.004 A 
ATOM      9  C   UNL     1      -8.200  17.612  68.476  0.00  0.00    +0.001 A 
ATOM     10  C   UNL     1      -9.534  17.893  68.566  0.00  0.00    +0.018 A 
ATOM     11  C   UNL     1     -10.001  19.002  67.872  0.00  0.00    +0.001 A 
ATOM     12  C   UNL     1      -9.139  19.937  67.356  0.00  0.00    -0.004 A 
ENDBRANCH   1  10
BRANCH   2  13
ATOM     13  C   UNL     1     -10.367  15.261  67.191  0.00  0.00    +0.083 A 
ATOM     14  C   UNL     1      -9.993  13.922  67.132  0.00  0.00    +0.021 A 
ATOM     15  C   UNL     1     -10.265  13.139  66.015  0.00  0.00    +0.022 A 
ATOM     16  C   UNL     1     -10.893  13.701  64.909  0.00  0.00    +0.125 A 
ATOM     17  C   UNL     1     -10.789  15.084  64.811  0.00  0.00    +0.022 A 
ATOM     18  C   UNL     1     -10.564  15.853  65.948  0.00  0.00    +0.021 A 
BRANCH  16  19
ATOM     19  S   UNL     1     -12.030  12.769  63.970  0.00  0.00    +0.093 S 
ATOM     20  O   UNL     1     -12.547  13.595  62.830  0.00  0.00    -0.150 OA
ATOM     21  O   UNL     1     -13.204  12.305  64.800  0.00  0.00    -0.150 OA
ATOM     22  N   UNL     1     -11.167  11.413  63.314  0.00  0.00    +0.039 NA
ENDBRANCH  16  19
ENDBRANCH   2  13
BRANCH   4  23
ATOM     23  C   UNL     1     -12.385  14.954  71.507  0.00  0.00    +0.437 C 
ATOM     24  F   UNL     1     -12.414  13.603  71.197  0.00  0.00    -0.164 F 
ATOM     25  F   UNL     1     -11.520  15.165  72.569  0.00  0.00    -0.164 F 
ATOM     26  F   UNL     1     -13.689  15.276  71.861  0.00  0.00    -0.164 F 
ENDBRANCH   4  23
TORSDOF 4
ENDMDL
MODEL 4
REMARK VINA RESULT:      -7.9      4.303      5.781
REMARK  Name = 
REMARK  4 active torsions:
REMARK  status: ('A' for Active; 'I' for Inactive)
REMARK    1  A    between atoms: C_5  and  C_6
REMARK    2  A    between atoms: C_8  and  C_9
REMARK    3  A    between atoms: N_14  and  C_15
REMARK    4  A    between atoms: C_18  and  S_19
REMARK                            x       y       z     vdW  Elec       q    Type
REMARK                         _______ _______ _______ _____ _____    ______ ____
ROOT
ATOM      1  C   UNL     1     -11.265  14.500  68.621  0.00  0.00    +0.084 A 
ATOM      2  N   UNL     1     -10.647  15.688  68.763  0.00  0.00    -0.230 N 
ATOM      3  N   UNL     1     -10.509  15.819  70.084  0.00  0.00    -0.161 NA
ATOM      4  C   UNL     1     -11.548  15.221  70.715  0.00  0.00    +0.174 A 
ATOM      5  C   UNL     1     -12.095  14.403  69.732  0.00  0.00    +0.044 A 
ENDROOT
BRANCH   1  10
ATOM      6  C   UNL     1     -11.878  12.187  63.491  0.00  0.00    +0.031 C 
ATOM      7  C   UNL     1     -11.971  12.527  64.925  0.00  0.00    -0.022 A 
ATOM      8  C   UNL     1     -11.259  11.891  65.920  0.00  0.00    -0.004 A 
ATOM      9  C   UNL     1     -10.959  12.523  67.121  0.00  0.00    +0.001 A 
ATOM     10  C   UNL     1     -11.428  13.785  67.357  0.00  0.00    +0.018 A 
ATOM     11  C   UNL     1     -12.383  14.286  66.482  0.00  0.00    +0.001 A 
ATOM     12  C   UNL     1     -12.642  13.676  65.281  0.00  0.00    -0.004 A 
ENDBRANCH   1  10
BRANCH   2  13
ATOM     13  C   UNL     1     -10.123  16.552  67.745  0.00  0.00    +0.083 A 
ATOM     14  C   UNL     1     -10.538  17.876  67.634  0.00  0.00    +0.021 A 
ATOM     15  C   UNL     1      -9.637  18.901  67.367  0.00  0.00    +0.022 A 
ATOM     16  C   UNL     1      -8.292  18.610  67.167  0.00  0.00    +0.125 A 
ATOM     17  C   UNL     1      -8.023  17.298  66.793  0.00  0.00    +0.022 A 
ATOM     18  C   UNL     1      -8.915  16.279  67.113  0.00  0.00    +0.021 A 
BRANCH  16  19
ATOM     19  S   UNL     1      -7.056  19.706  67.728  0.00  0.00    +0.093 S 
ATOM     20  O   UNL     1      -6.995  19.681  69.226  0.00  0.00    -0.150 OA
ATOM     21  O   UNL     1      -7.313  21.126  67.279  0.00  0.00    -0.150 OA
ATOM     22  N   UNL     1      -5.539  19.130  67.110  0.00  0.00    +0.039 NA
ENDBRANCH  16  19
ENDBRANCH   2  13
BRANCH   4  23
ATOM     23  C   UNL     1     -12.250  15.723  71.938  0.00  0.00    +0.437 C 
ATOM     24  F   UNL     1     -11.720  16.928  72.370  0.00  0.00    -0.164 F 
ATOM     25  F   UNL     1     -13.593  15.891  71.640  0.00  0.00    -0.164 F 
ATOM     26  F   UNL     1     -12.087  14.847  73.004  0.00  0.00    -0.164 F 
ENDBRANCH   4  23
TORSDOF 4
ENDMDL
MODEL 5
REMARK VINA RESULT:      -7.9      4.394      6.467
REMARK  Name = 
REMARK  4 active torsions:
REMARK  status: ('A' for Active; 'I' for Inactive)
REMARK    1  A    between atoms: C_5  and  C_6
REMARK    2  A    between atoms: C_8  and  C_9
REMARK    3  A    between atoms: N_14  and  C_15
REMARK    4  A    between atoms: C_18  and  S_19
REMARK                            x       y       z     vdW  Elec       q    Type
REMARK                         _______ _______ _______ _____ _____    ______ ____
ROOT
ATOM      1  C   UNL     1     -11.323  16.054  69.503  0.00  0.00    +0.084 A 
ATOM      2  N   UNL     1     -11.634  14.753  69.342  0.00  0.00    -0.230 N 
ATOM      3  N   UNL     1     -12.658  14.567  70.178  0.00  0.00    -0.161 NA
ATOM      4  C   UNL     1     -12.521  15.373  71.258  0.00  0.00    +0.174 A 
ATOM      5  C   UNL     1     -11.586  16.314  70.842  0.00  0.00    +0.044 A 
ENDROOT
BRANCH   1  10
ATOM      6  C   UNL     1      -7.506  18.612  66.197  0.00  0.00    +0.031 C 
ATOM      7  C   UNL     1      -8.555  18.296  67.185  0.00  0.00    -0.022 A 
ATOM      8  C   UNL     1      -9.908  18.411  66.944  0.00  0.00    -0.004 A 
ATOM      9  C   UNL     1     -10.841  17.653  67.642  0.00  0.00    +0.001 A 
ATOM     10  C   UNL     1     -10.424  16.813  68.636  0.00  0.00    +0.018 A 
ATOM     11  C   UNL     1      -9.108  16.935  69.064  0.00  0.00    +0.001 A 
ATOM     12  C   UNL     1      -8.186  17.653  68.346  0.00  0.00    -0.004 A 
ENDBRANCH   1  10
BRANCH   2  13
ATOM     13  C   UNL     1     -11.100  13.814  68.399  0.00  0.00    +0.083 A 
ATOM     14  C   UNL     1     -11.746  12.611  68.129  0.00  0.00    +0.021 A 
ATOM     15  C   UNL     1     -11.851  12.118  66.833  0.00  0.00    +0.022 A 
ATOM     16  C   UNL     1     -11.271  12.810  65.775  0.00  0.00    +0.125 A 
ATOM     17  C   UNL     1     -10.251  13.684  66.133  0.00  0.00    +0.022 A 
ATOM     18  C   UNL     1     -10.191  14.205  67.421  0.00  0.00    +0.021 A 
BRANCH  16  19
ATOM     19  S   UNL     1     -12.046  12.849  64.213  0.00  0.00    +0.093 S 
ATOM     20  O   UNL     1     -13.320  12.059  64.256  0.00  0.00    -0.150 OA
ATOM     21  O   UNL     1     -11.162  12.279  63.128  0.00  0.00    -0.150 OA
ATOM     22  N   UNL     1     -12.442  14.506  63.877  0.00  0.00    +0.039 NA
ENDBRANCH  16  19
ENDBRANCH   2  13
BRANCH   4  23
ATOM     23  C   UNL     1     -12.848  15.019  72.675  0.00  0.00    +0.437 C 
ATOM     24  F   UNL     1     -13.283  13.707  72.785  0.00  0.00    -0.164 F 
ATOM     25  F   UNL     1     -11.712  15.194  73.448  0.00  0.00    -0.164 F 
ATOM     26  F   UNL     1     -13.897  15.793  73.156  0.00  0.00    -0.164 F 
ENDBRANCH   4  23
TORSDOF 4
ENDMDL
MODEL 6
REMARK VINA RESULT:      -7.6      4.904      7.250
REMARK  Name = 
REMARK  4 active torsions:
REMARK  status: ('A' for Active; 'I' for Inactive)
REMARK    1  A    between atoms: C_5  and  C_6
REMARK    2  A    between atoms: C_8  and  C_9
REMARK    3  A    between atoms: N_14  and  C_15
REMARK    4  A    between atoms: C_18  and  S_19
REMARK                            x       y       z     vdW  Elec       q    Type
REMARK                         _______ _______ _______ _____ _____    ______ ____
ROOT
ATOM      1  C   UNL     1     -11.788  14.766  68.943  0.00  0.00    +0.084 A 
ATOM      2  N   UNL     1     -10.883  15.394  68.167  0.00  0.00    -0.230 N 
ATOM      3  N   UNL     1     -11.239  15.055  66.927  0.00  0.00    -0.161 NA
ATOM      4  C   UNL     1     -11.773  13.810  66.926  0.00  0.00    +0.174 A 
ATOM      5  C   UNL     1     -12.070  13.586  68.266  0.00  0.00    +0.044 A 
ENDROOT
BRANCH   1  10
ATOM      6  C   UNL     1     -12.434  15.214  74.549  0.00  0.00    +0.031 C 
ATOM      7  C   UNL     1     -12.560  15.331  73.083  0.00  0.00    -0.022 A 
ATOM      8  C   UNL     1     -12.016  16.357  72.337  0.00  0.00    -0.004 A 
ATOM      9  C   UNL     1     -11.697  16.192  70.995  0.00  0.00    +0.001 A 
ATOM     10  C   UNL     1     -11.980  15.010  70.371  0.00  0.00    +0.018 A 
ATOM     11  C   UNL     1     -12.793  14.110  71.048  0.00  0.00    +0.001 A 
ATOM     12  C   UNL     1     -13.068  14.260  72.384  0.00  0.00    -0.004 A 
ENDBRANCH   1  10
BRANCH   2  13
ATOM     13  C   UNL     1      -9.861  16.323  68.555  0.00  0.00    +0.083 A 
ATOM     14  C   UNL     1      -8.599  15.890  68.948  0.00  0.00    +0.021 A 
ATOM     15  C   UNL     1      -7.444  16.547  68.536  0.00  0.00    +0.022 A 
ATOM     16  C   UNL     1      -7.536  17.685  67.743  0.00  0.00    +0.125 A 
ATOM     17  C   UNL     1      -8.759  18.345  67.801  0.00  0.00    +0.022 A 
ATOM     18  C   UNL     1      -9.911  17.658  68.169  0.00  0.00    +0.021 A 
BRANCH  16  19
ATOM     19  S   UNL     1      -6.349  17.999  66.505  0.00  0.00    +0.093 S 
ATOM     20  O   UNL     1      -7.033  18.422  65.238  0.00  0.00    -0.150 OA
ATOM     21  O   UNL     1      -5.501  16.783  66.211  0.00  0.00    -0.150 OA
ATOM     22  N   UNL     1      -5.364  19.316  67.059  0.00  0.00    +0.039 NA
ENDBRANCH  16  19
ENDBRANCH   2  13
BRANCH   4  23
ATOM     23  C   UNL     1     -11.573  12.760  65.878  0.00  0.00    +0.437 C 
ATOM     24  F   UNL     1     -11.187  11.552  66.437  0.00  0.00    -0.164 F 
ATOM     25  F   UNL     1     -12.763  12.590  65.190  0.00  0.00    -0.164 F 
ATOM     26  F   UNL     1     -10.546  13.107  65.010  0.00  0.00    -0.164 F 
ENDBRANCH   4  23
TORSDOF 4
ENDMDL
MODEL 7
REMARK VINA RESULT:      -7.4      2.956      3.580
REMARK  Name = 
REMARK  4 active torsions:
REMARK  status: ('A' for Active; 'I' for Inactive)
REMARK    1  A    between atoms: C_5  and  C_6
REMARK    2  A    between atoms: C_8  and  C_9
REMARK    3  A    between atoms: N_14  and  C_15
REMARK    4  A    between atoms: C_18  and  S_19
REMARK                            x       y       z     vdW  Elec       q    Type
REMARK                         _______ _______ _______ _____ _____    ______ ____
ROOT
ATOM      1  C   UNL     1     -10.922  16.098  66.569  0.00  0.00    +0.084 A 
ATOM      2  N   UNL     1     -10.552  16.039  67.863  0.00  0.00    -0.230 N 
ATOM      3  N   UNL     1     -10.690  17.295  68.291  0.00  0.00    -0.161 NA
ATOM      4  C   UNL     1     -10.428  18.156  67.279  0.00  0.00    +0.174 A 
ATOM      5  C   UNL     1     -10.508  17.355  66.145  0.00  0.00    +0.044 A 
ENDROOT
BRANCH   1  10
ATOM      6  C   UNL     1     -12.371  11.806  63.176  0.00  0.00    +0.031 C 
ATOM      7  C   UNL     1     -11.835  12.649  64.262  0.00  0.00    -0.022 A 
ATOM      8  C   UNL     1     -10.541  13.123  64.310  0.00  0.00    -0.004 A 
ATOM      9  C   UNL     1     -10.213  14.280  65.006  0.00  0.00    +0.001 A 
ATOM     10  C   UNL     1     -11.176  14.939  65.717  0.00  0.00    +0.018 A 
ATOM     11  C   UNL     1     -12.389  14.289  65.903  0.00  0.00    +0.001 A 
ATOM     12  C   UNL     1     -12.719  13.170  65.180  0.00  0.00    -0.004 A 
ENDBRANCH   1  10
BRANCH   2  13
ATOM     13  C   UNL     1     -10.223  14.884  68.649  0.00  0.00    +0.083 A 
ATOM     14  C   UNL     1     -11.210  14.124  69.267  0.00  0.00    +0.021 A 
ATOM     15  C   UNL     1     -11.157  12.733  69.278  0.00  0.00    +0.022 A 
ATOM     16  C   UNL     1     -10.082  12.074  68.693  0.00  0.00    +0.125 A 
ATOM     17  C   UNL     1      -8.928  12.838  68.553  0.00  0.00    +0.022 A 
ATOM     18  C   UNL     1      -9.008  14.225  68.495  0.00  0.00    +0.021 A 
BRANCH  16  19
ATOM     19  S   UNL     1     -10.318  10.557  67.866  0.00  0.00    +0.093 S 
ATOM     20  O   UNL     1     -11.681  10.525  67.240  0.00  0.00    -0.150 OA
ATOM     21  O   UNL     1     -10.189   9.376  68.799  0.00  0.00    -0.150 OA
ATOM     22  N   UNL     1      -9.134  10.472  66.599  0.00  0.00    +0.039 NA
ENDBRANCH  16  19
ENDBRANCH   2  13
BRANCH   4  23
ATOM     23  C   UNL     1      -9.702  19.460  67.390  0.00  0.00    +0.437 C 
ATOM     24  F   UNL     1      -9.609  20.097  66.162  0.00  0.00    -0.164 F 
ATOM     25  F   UNL     1     -10.384  20.273  68.280  0.00  0.00    -0.164 F 
ATOM     26  F   UNL     1      -8.389  19.269  67.802  0.00  0.00    -0.164 F 
ENDBRANCH   4  23
TORSDOF 4
ENDMDL
MODEL 8
REMARK VINA RESULT:      -7.3      4.582      5.965
REMARK  Name = 
REMARK  4 active torsions:
REMARK  status: ('A' for Active; 'I' for Inactive)
REMARK    1  A    between atoms: C_5  and  C_6
REMARK    2  A    between atoms: C_8  and  C_9
REMARK    3  A    between atoms: N_14  and  C_15
REMARK    4  A    between atoms: C_18  and  S_19
REMARK                            x       y       z     vdW  Elec       q    Type
REMARK                         _______ _______ _______ _____ _____    ______ ____
ROOT
ATOM      1  C   UNL     1     -11.377  14.509  69.105  0.00  0.00    +0.084 A 
ATOM      2  N   UNL     1     -11.228  15.829  69.331  0.00  0.00    -0.230 N 
ATOM      3  N   UNL     1     -11.452  15.954  70.641  0.00  0.00    -0.161 NA
ATOM      4  C   UNL     1     -12.358  15.030  71.042  0.00  0.00    +0.174 A 
ATOM      5  C   UNL     1     -12.365  14.111  69.997  0.00  0.00    +0.044 A 
ENDROOT
BRANCH   1  10
ATOM      6  C   UNL     1     -10.250  12.149  64.085  0.00  0.00    +0.031 C 
ATOM      7  C   UNL     1     -10.514  12.409  65.514  0.00  0.00    -0.022 A 
ATOM      8  C   UNL     1      -9.531  12.578  66.466  0.00  0.00    -0.004 A 
ATOM      9  C   UNL     1      -9.757  13.307  67.627  0.00  0.00    +0.001 A 
ATOM     10  C   UNL     1     -10.999  13.822  67.872  0.00  0.00    +0.018 A 
ATOM     11  C   UNL     1     -12.041  13.390  67.061  0.00  0.00    +0.001 A 
ATOM     12  C   UNL     1     -11.803  12.706  65.896  0.00  0.00    -0.004 A 
ENDBRANCH   1  10
BRANCH   2  13
ATOM     13  C   UNL     1     -10.791  16.850  68.423  0.00  0.00    +0.083 A 
ATOM     14  C   UNL     1     -10.071  17.954  68.867  0.00  0.00    +0.021 A 
ATOM     15  C   UNL     1      -8.986  18.451  68.151  0.00  0.00    +0.022 A 
ATOM     16  C   UNL     1      -8.621  17.863  66.945  0.00  0.00    +0.125 A 
ATOM     17  C   UNL     1      -9.626  17.135  66.317  0.00  0.00    +0.022 A 
ATOM     18  C   UNL     1     -10.677  16.605  67.058  0.00  0.00    +0.021 A 
BRANCH  16  19
ATOM     19  S   UNL     1      -6.941  17.744  66.491  0.00  0.00    +0.093 S 
ATOM     20  O   UNL     1      -6.748  18.283  65.105  0.00  0.00    -0.150 OA
ATOM     21  O   UNL     1      -6.445  16.317  66.527  0.00  0.00    -0.150 OA
ATOM     22  N   UNL     1      -6.040  18.736  67.594  0.00  0.00    +0.039 NA
ENDBRANCH  16  19
ENDBRANCH   2  13
BRANCH   4  23
ATOM     23  C   UNL     1     -13.449  15.235  72.045  0.00  0.00    +0.437 C 
ATOM     24  F   UNL     1     -13.677  14.088  72.791  0.00  0.00    -0.164 F 
ATOM     25  F   UNL     1     -13.085  16.270  72.890  0.00  0.00    -0.164 F 
ATOM     26  F   UNL     1     -14.659  15.511  71.420  0.00  0.00    -0.164 F 
ENDBRANCH   4  23
TORSDOF 4
ENDMDL
MODEL 9
REMARK VINA RESULT:      -7.2      5.213      6.854
REMARK  Name = 
REMARK  4 active torsions:
REMARK  status: ('A' for Active; 'I' for Inactive)
REMARK    1  A    between atoms: C_5  and  C_6
REMARK    2  A    between atoms: C_8  and  C_9
REMARK    3  A    between atoms: N_14  and  C_15
REMARK    4  A    between atoms: C_18  and  S_19
REMARK                            x       y       z     vdW  Elec       q    Type
REMARK                         _______ _______ _______ _____ _____    ______ ____
ROOT
ATOM      1  C   UNL     1      -9.438  15.094  67.371  0.00  0.00    +0.084 A 
ATOM      2  N   UNL     1     -10.388  16.042  67.257  0.00  0.00    -0.230 N 
ATOM      3  N   UNL     1     -11.519  15.344  67.135  0.00  0.00    -0.161 NA
ATOM      4  C   UNL     1     -11.273  14.180  66.489  0.00  0.00    +0.174 A 
ATOM      5  C   UNL     1      -9.891  14.047  66.578  0.00  0.00    +0.044 A 
ENDROOT
BRANCH   1  10
ATOM      6  C   UNL     1      -4.103  15.619  69.189  0.00  0.00    +0.031 C 
ATOM      7  C   UNL     1      -5.496  15.855  68.764  0.00  0.00    -0.022 A 
ATOM      8  C   UNL     1      -5.864  16.242  67.492  0.00  0.00    -0.004 A 
ATOM      9  C   UNL     1      -7.125  15.960  66.980  0.00  0.00    +0.001 A 
ATOM     10  C   UNL     1      -8.053  15.340  67.768  0.00  0.00    +0.018 A 
ATOM     11  C   UNL     1      -7.770  15.234  69.124  0.00  0.00    +0.001 A 
ATOM     12  C   UNL     1      -6.511  15.475  69.613  0.00  0.00    -0.004 A 
ENDBRANCH   1  10
BRANCH   2  13
ATOM     13  C   UNL     1     -10.254  17.465  67.380  0.00  0.00    +0.083 A 
ATOM     14  C   UNL     1      -9.918  18.059  68.593  0.00  0.00    +0.021 A 
ATOM     15  C   UNL     1      -9.013  19.113  68.660  0.00  0.00    +0.022 A 
ATOM     16  C   UNL     1      -8.450  19.622  67.494  0.00  0.00    +0.125 A 
ATOM     17  C   UNL     1      -9.166  19.359  66.332  0.00  0.00    +0.022 A 
ATOM     18  C   UNL     1     -10.030  18.270  66.269  0.00  0.00    +0.021 A 
BRANCH  16  19
ATOM     19  S   UNL     1      -6.800  20.186  67.482  0.00  0.00    +0.093 S 
ATOM     20  O   UNL     1      -6.771  21.670  67.265  0.00  0.00    -0.150 OA
ATOM     21  O   UNL     1      -5.983  19.524  66.398  0.00  0.00    -0.150 OA
ATOM     22  N   UNL     1      -6.131  19.851  69.049  0.00  0.00    +0.039 NA
ENDBRANCH  16  19
ENDBRANCH   2  13
BRANCH   4  23
ATOM     23  C   UNL     1     -12.159  13.522  65.478  0.00  0.00    +0.437 C 
ATOM     24  F   UNL     1     -12.239  12.153  65.685  0.00  0.00    -0.164 F 
ATOM     25  F   UNL     1     -13.425  14.076  65.572  0.00  0.00    -0.164 F 
ATOM     26  F   UNL     1     -11.650  13.669  64.194  0.00  0.00    -0.164 F 
ENDBRANCH   4  23
TORSDOF 4
ENDMDL
