MODEL 1
REMARK VINA RESULT:      -6.2      0.000      0.000
REMARK  Name = 
REMARK  9 active torsions:
REMARK  status: ('A' for Active; 'I' for Inactive)
REMARK    1  A    between atoms: C_2  and  C_4
REMARK    2  A    between atoms: C_4  and  O_6
REMARK    3  A    between atoms: O_6  and  C_7
REMARK    4  A    between atoms: C_7  and  O_9
REMARK    5  A    between atoms: O_9  and  C_10
REMARK    6  A    between atoms: N_12  and  C_13
REMARK    7  A    between atoms: C_13  and  C_14
REMARK    8  A    between atoms: C_14  and  C_15
REMARK    9  A    between atoms: C_15  and  C_16
REMARK                            x       y       z     vdW  Elec       q    Type
REMARK                         _______ _______ _______ _____ _____    ______ ____
ROOT
ATOM      1  C   UNL     1     -10.655  16.920  65.668  0.00  0.00    +0.424 C 
ATOM      2  N   UNL     1     -10.242  15.608  66.024  0.00  0.00    -0.169 NA
ATOM      3  O   UNL     1     -11.115  17.096  64.534  0.00  0.00    -0.224 OA
ENDROOT
BRANCH   1   4
ATOM      4  O   UNL     1     -10.359  17.914  66.528  0.00  0.00    -0.398 OA
BRANCH   4   5
ATOM      5  C   UNL     1      -9.686  17.547  67.875  0.00  0.00    +0.346 C 
ATOM      6  C   UNL     1      -9.629  19.125  68.396  0.00  0.00    +0.100 C 
BRANCH   5   7
ATOM      7  O   UNL     1     -11.054  17.305  68.572  0.00  0.00    -0.414 OA
BRANCH   7   8
ATOM      8  C   UNL     1     -10.988  16.188  69.377  0.00  0.00    +0.319 C 
ATOM      9  O   UNL     1      -9.911  15.560  69.590  0.00  0.00    -0.250 OA
BRANCH   8  11
ATOM     10  C   UNL     1     -11.872  16.086  71.611  0.00  0.00    +0.012 C 
ATOM     11  C   UNL     1     -12.123  15.794  70.268  0.00  0.00    +0.099 C 
ATOM     12  C   UNL     1     -12.209  14.273  70.195  0.00  0.00    +0.012 C 
ENDBRANCH   8  11
ENDBRANCH   7   8
ENDBRANCH   5   7
ENDBRANCH   4   5
ENDBRANCH   1   4
BRANCH   2  13
ATOM     13  C   UNL     1     -10.095  14.513  65.274  0.00  0.00    +0.119 C 
BRANCH  13  14
ATOM     14  C   UNL     1     -10.389  13.135  65.534  0.00  0.00    +0.031 C 
ATOM     15  C   UNL     1     -11.597  13.091  66.467  0.00  0.00    +0.002 C 
ATOM     16  C   UNL     1     -11.634  11.855  67.310  0.00  0.00    +0.000 C 
ATOM     17  C   UNL     1     -10.448  11.698  68.220  0.00  0.00    +0.000 C 
ATOM     18  C   UNL     1      -9.234  12.351  67.605  0.00  0.00    +0.000 C 
ATOM     19  C   UNL     1      -9.332  12.248  66.111  0.00  0.00    +0.002 C 
BRANCH  14  20
ATOM     20  C   UNL     1     -10.867  12.498  64.231  0.00  0.00    +0.116 C 
BRANCH  20  21
ATOM     21  C   UNL     1     -12.270  12.865  63.956  0.00  0.00    +0.365 C 
ATOM     22  O   UNL     1     -13.306  11.952  63.779  0.00  0.00    -0.246 OA
ATOM     23  O   UNL     1     -12.436  13.949  63.314  0.00  0.00    -0.246 OA
ENDBRANCH  20  21
ENDBRANCH  14  20
ENDBRANCH  13  14
ENDBRANCH   2  13
TORSDOF 9
ENDMDL
MODEL 2
REMARK VINA RESULT:      -6.2      2.647      4.678
REMARK  Name = 
REMARK  9 active torsions:
REMARK  status: ('A' for Active; 'I' for Inactive)
REMARK    1  A    between atoms: C_2  and  C_4
REMARK    2  A    between atoms: C_4  and  O_6
REMARK    3  A    between atoms: O_6  and  C_7
REMARK    4  A    between atoms: C_7  and  O_9
REMARK    5  A    between atoms: O_9  and  C_10
REMARK    6  A    between atoms: N_12  and  C_13
REMARK    7  A    between atoms: C_13  and  C_14
REMARK    8  A    between atoms: C_14  and  C_15
REMARK    9  A    between atoms: C_15  and  C_16
REMARK                            x       y       z     vdW  Elec       q    Type
REMARK                         _______ _______ _______ _____ _____    ______ ____
ROOT
ATOM      1  C   UNL     1     -11.069  11.445  68.432  0.00  0.00    +0.424 C 
ATOM      2  N   UNL     1      -9.990  12.298  68.076  0.00  0.00    -0.169 NA
ATOM      3  O   UNL     1     -11.836  11.074  67.536  0.00  0.00    -0.224 OA
ENDROOT
BRANCH   1   4
ATOM      4  O   UNL     1     -11.283  11.238  69.746  0.00  0.00    -0.398 OA
BRANCH   4   5
ATOM      5  C   UNL     1     -12.712  11.458  70.303  0.00  0.00    +0.346 C 
ATOM      6  C   UNL     1     -12.567  10.254  71.441  0.00  0.00    +0.100 C 
BRANCH   5   7
ATOM      7  O   UNL     1     -12.230  12.543  71.305  0.00  0.00    -0.414 OA
BRANCH   7   8
ATOM      8  C   UNL     1     -13.279  13.366  71.660  0.00  0.00    +0.319 C 
ATOM      9  O   UNL     1     -14.017  13.140  72.661  0.00  0.00    -0.250 OA
BRANCH   8  11
ATOM     10  C   UNL     1     -12.476  15.625  71.474  0.00  0.00    +0.012 C 
ATOM     11  C   UNL     1     -13.454  14.721  71.052  0.00  0.00    +0.099 C 
ATOM     12  C   UNL     1     -14.769  15.264  71.602  0.00  0.00    +0.012 C 
ENDBRANCH   8  11
ENDBRANCH   7   8
ENDBRANCH   5   7
ENDBRANCH   4   5
ENDBRANCH   1   4
BRANCH   2  13
ATOM     13  C   UNL     1      -9.734  12.939  66.932  0.00  0.00    +0.119 C 
BRANCH  13  14
ATOM     14  C   UNL     1     -10.340  14.089  66.330  0.00  0.00    +0.031 C 
ATOM     15  C   UNL     1      -9.253  15.149  66.166  0.00  0.00    +0.002 C 
ATOM     16  C   UNL     1      -9.796  16.543  66.167  0.00  0.00    +0.000 C 
ATOM     17  C   UNL     1     -10.508  16.923  67.435  0.00  0.00    +0.000 C 
ATOM     18  C   UNL     1     -11.124  15.700  68.069  0.00  0.00    +0.000 C 
ATOM     19  C   UNL     1     -11.516  14.737  66.987  0.00  0.00    +0.002 C 
BRANCH  14  20
ATOM     20  C   UNL     1     -10.752  13.718  64.907  0.00  0.00    +0.116 C 
BRANCH  20  21
ATOM     21  C   UNL     1     -12.217  13.802  64.749  0.00  0.00    +0.365 C 
ATOM     22  O   UNL     1     -13.084  12.716  64.834  0.00  0.00    -0.246 OA
ATOM     23  O   UNL     1     -12.633  14.723  63.980  0.00  0.00    -0.246 OA
ENDBRANCH  20  21
ENDBRANCH  14  20
ENDBRANCH  13  14
ENDBRANCH   2  13
TORSDOF 9
ENDMDL
MODEL 3
REMARK VINA RESULT:      -6.0      2.122      3.496
REMARK  Name = 
REMARK  9 active torsions:
REMARK  status: ('A' for Active; 'I' for Inactive)
REMARK    1  A    between atoms: C_2  and  C_4
REMARK    2  A    between atoms: C_4  and  O_6
REMARK    3  A    between atoms: O_6  and  C_7
REMARK    4  A    between atoms: C_7  and  O_9
REMARK    5  A    between atoms: O_9  and  C_10
REMARK    6  A    between atoms: N_12  and  C_13
REMARK    7  A    between atoms: C_13  and  C_14
REMARK    8  A    between atoms: C_14  and  C_15
REMARK    9  A    between atoms: C_15  and  C_16
REMARK                            x       y       z     vdW  Elec       q    Type
REMARK                         _______ _______ _______ _____ _____    ______ ____
ROOT
ATOM      1  C   UNL     1      -9.358  16.413  66.051  0.00  0.00    +0.424 C 
ATOM      2  N   UNL     1      -9.513  15.579  67.190  0.00  0.00    -0.169 NA
ATOM      3  O   UNL     1     -10.336  16.579  65.315  0.00  0.00    -0.224 OA
ENDROOT
BRANCH   1   4
ATOM      4  O   UNL     1      -8.110  16.829  65.757  0.00  0.00    -0.398 OA
BRANCH   4   5
ATOM      5  C   UNL     1      -7.404  17.795  66.743  0.00  0.00    +0.346 C 
ATOM      6  C   UNL     1      -5.969  17.771  65.902  0.00  0.00    +0.100 C 
BRANCH   5   7
ATOM      7  O   UNL     1      -7.900  19.052  65.976  0.00  0.00    -0.414 OA
BRANCH   7   8
ATOM      8  C   UNL     1      -8.226  20.056  66.863  0.00  0.00    +0.319 C 
ATOM      9  O   UNL     1      -7.411  20.963  67.200  0.00  0.00    -0.250 OA
BRANCH   8  11
ATOM     10  C   UNL     1     -10.030  19.485  68.347  0.00  0.00    +0.012 C 
ATOM     11  C   UNL     1      -9.640  20.304  67.285  0.00  0.00    +0.099 C 
ATOM     12  C   UNL     1     -10.512  19.881  66.107  0.00  0.00    +0.012 C 
ENDBRANCH   8  11
ENDBRANCH   7   8
ENDBRANCH   5   7
ENDBRANCH   4   5
ENDBRANCH   1   4
BRANCH   2  13
ATOM     13  C   UNL     1     -10.515  14.768  67.539  0.00  0.00    +0.119 C 
BRANCH  13  14
ATOM     14  C   UNL     1     -11.054  13.597  66.914  0.00  0.00    +0.031 C 
ATOM     15  C   UNL     1     -11.332  12.576  68.014  0.00  0.00    +0.002 C 
ATOM     16  C   UNL     1     -11.279  11.164  67.522  0.00  0.00    +0.000 C 
ATOM     17  C   UNL     1      -9.945  10.760  66.959  0.00  0.00    +0.000 C 
ATOM     18  C   UNL     1      -9.247  11.962  66.371  0.00  0.00    +0.000 C 
ATOM     19  C   UNL     1     -10.280  12.910  65.835  0.00  0.00    +0.002 C 
BRANCH  14  20
ATOM     20  C   UNL     1     -12.426  13.953  66.344  0.00  0.00    +0.116 C 
BRANCH  20  21
ATOM     21  C   UNL     1     -12.521  13.551  64.927  0.00  0.00    +0.365 C 
ATOM     22  O   UNL     1     -12.534  14.438  63.853  0.00  0.00    -0.246 OA
ATOM     23  O   UNL     1     -13.163  12.478  64.704  0.00  0.00    -0.246 OA
ENDBRANCH  20  21
ENDBRANCH  14  20
ENDBRANCH  13  14
ENDBRANCH   2  13
TORSDOF 9
ENDMDL
MODEL 4
REMARK VINA RESULT:      -6.0      2.191      6.314
REMARK  Name = 
REMARK  9 active torsions:
REMARK  status: ('A' for Active; 'I' for Inactive)
REMARK    1  A    between atoms: C_2  and  C_4
REMARK    2  A    between atoms: C_4  and  O_6
REMARK    3  A    between atoms: O_6  and  C_7
REMARK    4  A    between atoms: C_7  and  O_9
REMARK    5  A    between atoms: O_9  and  C_10
REMARK    6  A    between atoms: N_12  and  C_13
REMARK    7  A    between atoms: C_13  and  C_14
REMARK    8  A    between atoms: C_14  and  C_15
REMARK    9  A    between atoms: C_15  and  C_16
REMARK                            x       y       z     vdW  Elec       q    Type
REMARK                         _______ _______ _______ _____ _____    ______ ____
ROOT
ATOM      1  C   UNL     1     -11.559  15.278  68.502  0.00  0.00    +0.424 C 
ATOM      2  N   UNL     1     -10.188  15.454  68.176  0.00  0.00    -0.169 NA
ATOM      3  O   UNL     1     -12.133  16.189  69.108  0.00  0.00    -0.224 OA
ENDROOT
BRANCH   1   4
ATOM      4  O   UNL     1     -12.094  14.061  68.280  0.00  0.00    -0.398 OA
BRANCH   4   5
ATOM      5  C   UNL     1     -11.138  12.883  67.965  0.00  0.00    +0.346 C 
ATOM      6  C   UNL     1     -11.697  11.955  69.228  0.00  0.00    +0.100 C 
BRANCH   5   7
ATOM      7  O   UNL     1     -12.145  12.240  66.971  0.00  0.00    -0.414 OA
BRANCH   7   8
ATOM      8  C   UNL     1     -12.027  12.824  65.727  0.00  0.00    +0.319 C 
ATOM      9  O   UNL     1     -13.020  13.275  65.087  0.00  0.00    -0.250 OA
BRANCH   8  11
ATOM     10  C   UNL     1     -10.639  14.559  64.806  0.00  0.00    +0.012 C 
ATOM     11  C   UNL     1     -10.696  13.209  65.163  0.00  0.00    +0.099 C 
ATOM     12  C   UNL     1     -10.553  12.438  63.855  0.00  0.00    +0.012 C 
ENDBRANCH   8  11
ENDBRANCH   7   8
ENDBRANCH   5   7
ENDBRANCH   4   5
ENDBRANCH   1   4
BRANCH   2  13
ATOM     13  C   UNL     1      -9.318  16.390  68.567  0.00  0.00    +0.119 C 
BRANCH  13  14
ATOM     14  C   UNL     1      -8.860  17.589  67.929  0.00  0.00    +0.031 C 
ATOM     15  C   UNL     1      -9.531  18.767  68.631  0.00  0.00    +0.002 C 
ATOM     16  C   UNL     1      -9.677  19.964  67.744  0.00  0.00    +0.000 C 
ATOM     17  C   UNL     1     -10.518  19.722  66.522  0.00  0.00    +0.000 C 
ATOM     18  C   UNL     1     -10.415  18.277  66.100  0.00  0.00    +0.000 C 
ATOM     19  C   UNL     1      -9.050  17.764  66.456  0.00  0.00    +0.002 C 
BRANCH  14  20
ATOM     20  C   UNL     1      -7.370  17.744  68.225  0.00  0.00    +0.116 C 
BRANCH  20  21
ATOM     21  C   UNL     1      -6.559  17.151  67.143  0.00  0.00    +0.365 C 
ATOM     22  O   UNL     1      -6.231  15.801  67.051  0.00  0.00    -0.246 OA
ATOM     23  O   UNL     1      -5.690  17.919  66.627  0.00  0.00    -0.246 OA
ENDBRANCH  20  21
ENDBRANCH  14  20
ENDBRANCH  13  14
ENDBRANCH   2  13
TORSDOF 9
ENDMDL
MODEL 5
REMARK VINA RESULT:      -6.0      2.483      6.044
REMARK  Name = 
REMARK  9 active torsions:
REMARK  status: ('A' for Active; 'I' for Inactive)
REMARK    1  A    between atoms: C_2  and  C_4
REMARK    2  A    between atoms: C_4  and  O_6
REMARK    3  A    between atoms: O_6  and  C_7
REMARK    4  A    between atoms: C_7  and  O_9
REMARK    5  A    between atoms: O_9  and  C_10
REMARK    6  A    between atoms: N_12  and  C_13
REMARK    7  A    between atoms: C_13  and  C_14
REMARK    8  A    between atoms: C_14  and  C_15
REMARK    9  A    between atoms: C_15  and  C_16
REMARK                            x       y       z     vdW  Elec       q    Type
REMARK                         _______ _______ _______ _____ _____    ______ ____
ROOT
ATOM      1  C   UNL     1      -9.588  15.616  65.952  0.00  0.00    +0.424 C 
ATOM      2  N   UNL     1      -8.316  16.104  66.353  0.00  0.00    -0.169 NA
ATOM      3  O   UNL     1     -10.233  16.278  65.131  0.00  0.00    -0.224 OA
ENDROOT
BRANCH   1   4
ATOM      4  O   UNL     1     -10.079  14.554  66.621  0.00  0.00    -0.398 OA
BRANCH   4   5
ATOM      5  C   UNL     1     -11.580  14.558  67.009  0.00  0.00    +0.346 C 
ATOM      6  C   UNL     1     -11.746  12.917  66.801  0.00  0.00    +0.100 C 
BRANCH   5   7
ATOM      7  O   UNL     1     -11.261  14.393  68.521  0.00  0.00    -0.414 OA
BRANCH   7   8
ATOM      8  C   UNL     1     -11.673  15.507  69.221  0.00  0.00    +0.319 C 
ATOM      9  O   UNL     1     -11.607  16.677  68.745  0.00  0.00    -0.250 OA
BRANCH   8  11
ATOM     10  C   UNL     1     -11.848  16.010  71.566  0.00  0.00    +0.012 C 
ATOM     11  C   UNL     1     -12.473  15.393  70.480  0.00  0.00    +0.099 C 
ATOM     12  C   UNL     1     -12.509  13.908  70.825  0.00  0.00    +0.012 C 
ENDBRANCH   8  11
ENDBRANCH   7   8
ENDBRANCH   5   7
ENDBRANCH   4   5
ENDBRANCH   1   4
BRANCH   2  13
ATOM     13  C   UNL     1      -7.731  17.284  66.127  0.00  0.00    +0.119 C 
BRANCH  13  14
ATOM     14  C   UNL     1      -7.889  18.560  66.758  0.00  0.00    +0.031 C 
ATOM     15  C   UNL     1      -8.433  18.314  68.163  0.00  0.00    +0.002 C 
ATOM     16  C   UNL     1      -9.224  19.471  68.689  0.00  0.00    +0.000 C 
ATOM     17  C   UNL     1     -10.437  19.809  67.867  0.00  0.00    +0.000 C 
ATOM     18  C   UNL     1     -10.201  19.443  66.423  0.00  0.00    +0.000 C 
ATOM     19  C   UNL     1      -8.741  19.606  66.112  0.00  0.00    +0.002 C 
BRANCH  14  20
ATOM     20  C   UNL     1      -6.500  19.160  66.967  0.00  0.00    +0.116 C 
BRANCH  20  21
ATOM     21  C   UNL     1      -6.434  20.527  66.414  0.00  0.00    +0.365 C 
ATOM     22  O   UNL     1      -5.805  20.866  65.219  0.00  0.00    -0.246 OA
ATOM     23  O   UNL     1      -6.432  21.465  67.270  0.00  0.00    -0.246 OA
ENDBRANCH  20  21
ENDBRANCH  14  20
ENDBRANCH  13  14
ENDBRANCH   2  13
TORSDOF 9
ENDMDL
MODEL 6
REMARK VINA RESULT:      -6.0      1.803      3.360
REMARK  Name = 
REMARK  9 active torsions:
REMARK  status: ('A' for Active; 'I' for Inactive)
REMARK    1  A    between atoms: C_2  and  C_4
REMARK    2  A    between atoms: C_4  and  O_6
REMARK    3  A    between atoms: O_6  and  C_7
REMARK    4  A    between atoms: C_7  and  O_9
REMARK    5  A    between atoms: O_9  and  C_10
REMARK    6  A    between atoms: N_12  and  C_13
REMARK    7  A    between atoms: C_13  and  C_14
REMARK    8  A    between atoms: C_14  and  C_15
REMARK    9  A    between atoms: C_15  and  C_16
REMARK                            x       y       z     vdW  Elec       q    Type
REMARK                         _______ _______ _______ _____ _____    ______ ____
ROOT
ATOM      1  C   UNL     1     -11.050  16.709  68.361  0.00  0.00    +0.424 C 
ATOM      2  N   UNL     1     -11.019  15.652  67.413  0.00  0.00    -0.169 NA
ATOM      3  O   UNL     1     -11.556  16.482  69.466  0.00  0.00    -0.224 OA
ENDROOT
BRANCH   1   4
ATOM      4  O   UNL     1     -10.683  17.933  67.934  0.00  0.00    -0.398 OA
BRANCH   4   5
ATOM      5  C   UNL     1     -10.063  18.063  66.519  0.00  0.00    +0.346 C 
ATOM      6  C   UNL     1     -10.586  19.629  66.320  0.00  0.00    +0.100 C 
BRANCH   5   7
ATOM      7  O   UNL     1      -8.693  18.531  67.086  0.00  0.00    -0.414 OA
BRANCH   7   8
ATOM      8  C   UNL     1      -7.668  17.803  66.520  0.00  0.00    +0.319 C 
ATOM      9  O   UNL     1      -7.178  18.079  65.387  0.00  0.00    -0.250 OA
BRANCH   8  11
ATOM     10  C   UNL     1      -7.397  15.514  67.204  0.00  0.00    +0.012 C 
ATOM     11  C   UNL     1      -6.881  16.808  67.311  0.00  0.00    +0.099 C 
ATOM     12  C   UNL     1      -7.060  17.195  68.775  0.00  0.00    +0.012 C 
ENDBRANCH   8  11
ENDBRANCH   7   8
ENDBRANCH   5   7
ENDBRANCH   4   5
ENDBRANCH   1   4
BRANCH   2  13
ATOM     13  C   UNL     1     -11.611  14.455  67.430  0.00  0.00    +0.119 C 
BRANCH  13  14
ATOM     14  C   UNL     1     -11.447  13.300  66.597  0.00  0.00    +0.031 C 
ATOM     15  C   UNL     1     -11.648  12.068  67.476  0.00  0.00    +0.002 C 
ATOM     16  C   UNL     1     -10.918  10.866  66.966  0.00  0.00    +0.000 C 
ATOM     17  C   UNL     1      -9.426  11.039  66.893  0.00  0.00    +0.000 C 
ATOM     18  C   UNL     1      -9.085  12.489  66.650  0.00  0.00    +0.000 C 
ATOM     19  C   UNL     1     -10.176  13.114  65.830  0.00  0.00    +0.002 C 
BRANCH  14  20
ATOM     20  C   UNL     1     -12.600  13.269  65.597  0.00  0.00    +0.116 C 
BRANCH  20  21
ATOM     21  C   UNL     1     -12.213  13.931  64.335  0.00  0.00    +0.365 C 
ATOM     22  O   UNL     1     -12.253  15.306  64.120  0.00  0.00    -0.246 OA
ATOM     23  O   UNL     1     -12.398  13.248  63.280  0.00  0.00    -0.246 OA
ENDBRANCH  20  21
ENDBRANCH  14  20
ENDBRANCH  13  14
ENDBRANCH   2  13
TORSDOF 9
ENDMDL
MODEL 7
REMARK VINA RESULT:      -5.9      1.677      2.286
REMARK  Name = 
REMARK  9 active torsions:
REMARK  status: ('A' for Active; 'I' for Inactive)
REMARK    1  A    between atoms: C_2  and  C_4
REMARK    2  A    between atoms: C_4  and  O_6
REMARK    3  A    between atoms: O_6  and  C_7
REMARK    4  A    between atoms: C_7  and  O_9
REMARK    5  A    between atoms: O_9  and  C_10
REMARK    6  A    between atoms: N_12  and  C_13
REMARK    7  A    between atoms: C_13  and  C_14
REMARK    8  A    between atoms: C_14  and  C_15
REMARK    9  A    between atoms: C_15  and  C_16
REMARK                            x       y       z     vdW  Elec       q    Type
REMARK                         _______ _______ _______ _____ _____    ______ ____
ROOT
ATOM      1  C   UNL     1     -10.784  16.443  67.573  0.00  0.00    +0.424 C 
ATOM      2  N   UNL     1     -11.262  15.321  66.846  0.00  0.00    -0.169 NA
ATOM      3  O   UNL     1      -9.767  17.012  67.161  0.00  0.00    -0.224 OA
ENDROOT
BRANCH   1   4
ATOM      4  O   UNL     1     -11.371  16.706  68.757  0.00  0.00    -0.398 OA
BRANCH   4   5
ATOM      5  C   UNL     1     -11.918  15.518  69.588  0.00  0.00    +0.346 C 
ATOM      6  C   UNL     1     -10.403  14.998  70.036  0.00  0.00    +0.100 C 
BRANCH   5   7
ATOM      7  O   UNL     1     -12.061  16.388  70.868  0.00  0.00    -0.414 OA
BRANCH   7   8
ATOM      8  C   UNL     1     -12.847  15.742  71.799  0.00  0.00    +0.319 C 
ATOM      9  O   UNL     1     -12.974  16.152  72.989  0.00  0.00    -0.250 OA
BRANCH   8  11
ATOM     10  C   UNL     1     -15.145  15.067  71.576  0.00  0.00    +0.012 C 
ATOM     11  C   UNL     1     -13.816  14.673  71.404  0.00  0.00    +0.099 C 
ATOM     12  C   UNL     1     -13.603  13.527  72.387  0.00  0.00    +0.012 C 
ENDBRANCH   8  11
ENDBRANCH   7   8
ENDBRANCH   5   7
ENDBRANCH   4   5
ENDBRANCH   1   4
BRANCH   2  13
ATOM     13  C   UNL     1     -10.700  14.630  65.851  0.00  0.00    +0.119 C 
BRANCH  13  14
ATOM     14  C   UNL     1     -10.480  13.226  65.672  0.00  0.00    +0.031 C 
ATOM     15  C   UNL     1     -11.585  12.489  66.425  0.00  0.00    +0.002 C 
ATOM     16  C   UNL     1     -11.173  11.121  66.870  0.00  0.00    +0.000 C 
ATOM     17  C   UNL     1     -10.000  11.109  67.811  0.00  0.00    +0.000 C 
ATOM     18  C   UNL     1      -9.105  12.292  67.536  0.00  0.00    +0.000 C 
ATOM     19  C   UNL     1      -9.172  12.623  66.073  0.00  0.00    +0.002 C 
BRANCH  14  20
ATOM     20  C   UNL     1     -10.711  12.893  64.200  0.00  0.00    +0.116 C 
BRANCH  20  21
ATOM     21  C   UNL     1     -12.145  12.984  63.863  0.00  0.00    +0.365 C 
ATOM     22  O   UNL     1     -12.917  11.923  63.396  0.00  0.00    -0.246 OA
ATOM     23  O   UNL     1     -12.538  14.117  63.445  0.00  0.00    -0.246 OA
ENDBRANCH  20  21
ENDBRANCH  14  20
ENDBRANCH  13  14
ENDBRANCH   2  13
TORSDOF 9
ENDMDL
MODEL 8
REMARK VINA RESULT:      -5.9      2.476      6.489
REMARK  Name = 
REMARK  9 active torsions:
REMARK  status: ('A' for Active; 'I' for Inactive)
REMARK    1  A    between atoms: C_2  and  C_4
REMARK    2  A    between atoms: C_4  and  O_6
REMARK    3  A    between atoms: O_6  and  C_7
REMARK    4  A    between atoms: C_7  and  O_9
REMARK    5  A    between atoms: O_9  and  C_10
REMARK    6  A    between atoms: N_12  and  C_13
REMARK    7  A    between atoms: C_13  and  C_14
REMARK    8  A    between atoms: C_14  and  C_15
REMARK    9  A    between atoms: C_15  and  C_16
REMARK                            x       y       z     vdW  Elec       q    Type
REMARK                         _______ _______ _______ _____ _____    ______ ____
ROOT
ATOM      1  C   UNL     1     -10.543  15.933  65.504  0.00  0.00    +0.424 C 
ATOM      2  N   UNL     1      -9.267  16.059  66.114  0.00  0.00    -0.169 NA
ATOM      3  O   UNL     1     -10.821  16.699  64.574  0.00  0.00    -0.224 OA
ENDROOT
BRANCH   1   4
ATOM      4  O   UNL     1     -11.428  15.104  66.091  0.00  0.00    -0.398 OA
BRANCH   4   5
ATOM      5  C   UNL     1     -10.884  13.956  66.979  0.00  0.00    +0.346 C 
ATOM      6  C   UNL     1     -11.557  14.571  68.369  0.00  0.00    +0.100 C 
BRANCH   5   7
ATOM      7  O   UNL     1     -12.126  13.062  66.704  0.00  0.00    -0.414 OA
BRANCH   7   8
ATOM      8  C   UNL     1     -12.031  12.482  65.457  0.00  0.00    +0.319 C 
ATOM      9  O   UNL     1     -13.003  12.434  64.649  0.00  0.00    -0.250 OA
BRANCH   8  11
ATOM     10  C   UNL     1     -10.754  12.042  63.467  0.00  0.00    +0.012 C 
ATOM     11  C   UNL     1     -10.710  12.110  64.861  0.00  0.00    +0.099 C 
ATOM     12  C   UNL     1     -10.423  10.686  65.327  0.00  0.00    +0.012 C 
ENDBRANCH   8  11
ENDBRANCH   7   8
ENDBRANCH   5   7
ENDBRANCH   4   5
ENDBRANCH   1   4
BRANCH   2  13
ATOM     13  C   UNL     1      -8.331  17.003  65.978  0.00  0.00    +0.119 C 
BRANCH  13  14
ATOM     14  C   UNL     1      -8.159  18.272  66.619  0.00  0.00    +0.031 C 
ATOM     15  C   UNL     1      -8.452  18.079  68.105  0.00  0.00    +0.002 C 
ATOM     16  C   UNL     1      -8.933  19.331  68.769  0.00  0.00    +0.000 C 
ATOM     17  C   UNL     1     -10.213  19.876  68.199  0.00  0.00    +0.000 C 
ATOM     18  C   UNL     1     -10.323  19.513  66.738  0.00  0.00    +0.000 C 
ATOM     19  C   UNL     1      -8.945  19.454  66.147  0.00  0.00    +0.002 C 
BRANCH  14  20
ATOM     20  C   UNL     1      -6.679  18.643  66.549  0.00  0.00    +0.116 C 
BRANCH  20  21
ATOM     21  C   UNL     1      -6.409  19.489  65.371  0.00  0.00    +0.365 C 
ATOM     22  O   UNL     1      -6.180  19.004  64.085  0.00  0.00    -0.246 OA
ATOM     23  O   UNL     1      -5.818  20.587  65.609  0.00  0.00    -0.246 OA
ENDBRANCH  20  21
ENDBRANCH  14  20
ENDBRANCH  13  14
ENDBRANCH   2  13
TORSDOF 9
ENDMDL
MODEL 9
REMARK VINA RESULT:      -5.8      1.606      2.228
REMARK  Name = 
REMARK  9 active torsions:
REMARK  status: ('A' for Active; 'I' for Inactive)
REMARK    1  A    between atoms: C_2  and  C_4
REMARK    2  A    between atoms: C_4  and  O_6
REMARK    3  A    between atoms: O_6  and  C_7
REMARK    4  A    between atoms: C_7  and  O_9
REMARK    5  A    between atoms: O_9  and  C_10
REMARK    6  A    between atoms: N_12  and  C_13
REMARK    7  A    between atoms: C_13  and  C_14
REMARK    8  A    between atoms: C_14  and  C_15
REMARK    9  A    between atoms: C_15  and  C_16
REMARK                            x       y       z     vdW  Elec       q    Type
REMARK                         _______ _______ _______ _____ _____    ______ ____
ROOT
ATOM      1  C   UNL     1     -10.761  16.712  65.347  0.00  0.00    +0.424 C 
ATOM      2  N   UNL     1     -10.548  15.483  66.025  0.00  0.00    -0.169 NA
ATOM      3  O   UNL     1     -11.210  16.670  64.196  0.00  0.00    -0.224 OA
ENDROOT
BRANCH   1   4
ATOM      4  O   UNL     1     -10.299  17.831  65.939  0.00  0.00    -0.398 OA
BRANCH   4   5
ATOM      5  C   UNL     1      -8.800  17.892  66.331  0.00  0.00    +0.346 C 
ATOM      6  C   UNL     1      -8.764  19.554  66.345  0.00  0.00    +0.100 C 
BRANCH   5   7
ATOM      7  O   UNL     1      -9.123  17.828  67.850  0.00  0.00    -0.414 OA
BRANCH   7   8
ATOM      8  C   UNL     1      -8.063  17.281  68.541  0.00  0.00    +0.319 C 
ATOM      9  O   UNL     1      -7.079  17.968  68.941  0.00  0.00    -0.250 OA
BRANCH   8  11
ATOM     10  C   UNL     1      -7.742  14.926  68.171  0.00  0.00    +0.012 C 
ATOM     11  C   UNL     1      -8.122  15.896  69.103  0.00  0.00    +0.099 C 
ATOM     12  C   UNL     1      -9.593  15.621  69.396  0.00  0.00    +0.012 C 
ENDBRANCH   8  11
ENDBRANCH   7   8
ENDBRANCH   5   7
ENDBRANCH   4   5
ENDBRANCH   1   4
BRANCH   2  13
ATOM     13  C   UNL     1     -10.585  14.227  65.574  0.00  0.00    +0.119 C 
BRANCH  13  14
ATOM     14  C   UNL     1     -11.150  13.032  66.129  0.00  0.00    +0.031 C 
ATOM     15  C   UNL     1     -11.721  13.388  67.499  0.00  0.00    +0.002 C 
ATOM     16  C   UNL     1     -11.755  12.220  68.435  0.00  0.00    +0.000 C 
ATOM     17  C   UNL     1     -10.403  11.631  68.729  0.00  0.00    +0.000 C 
ATOM     18  C   UNL     1      -9.483  11.834  67.550  0.00  0.00    +0.000 C 
ATOM     19  C   UNL     1     -10.296  11.815  66.290  0.00  0.00    +0.002 C 
BRANCH  14  20
ATOM     20  C   UNL     1     -12.359  12.641  65.282  0.00  0.00    +0.116 C 
BRANCH  20  21
ATOM     21  C   UNL     1     -12.075  12.834  63.847  0.00  0.00    +0.365 C 
ATOM     22  O   UNL     1     -12.662  13.814  63.050  0.00  0.00    -0.246 OA
ATOM     23  O   UNL     1     -11.756  11.786  63.206  0.00  0.00    -0.246 OA
ENDBRANCH  20  21
ENDBRANCH  14  20
ENDBRANCH  13  14
ENDBRANCH   2  13
TORSDOF 9
ENDMDL
