MODEL 1
REMARK VINA RESULT:      -4.7      0.000      0.000
REMARK  Name = 
REMARK  3 active torsions:
REMARK  status: ('A' for Active; 'I' for Inactive)
REMARK    1  A    between atoms: C_2  and  C_3
REMARK    2  A    between atoms: C_3  and  C_4
REMARK    3  A    between atoms: C_3  and  N_7
REMARK                            x       y       z     vdW  Elec       q    Type
REMARK                         _______ _______ _______ _____ _____    ______ ____
ROOT
ATOM      1  C   UNL     1     -13.234  14.339  72.610  0.00  0.00    +0.155 C 
ENDROOT
BRANCH   1   2
ATOM      2  N   UNL     1     -12.324  14.623  71.361  0.00  0.00    -0.273 N 
ATOM      3  C   UNL     1     -12.100  13.589  70.408  0.00  0.00    +0.226 C 
ATOM      4  O   UNL     1     -12.334  12.350  70.503  0.00  0.00    -0.275 OA
ATOM      5  C   UNL     1     -11.169  14.158  69.413  0.00  0.00    +0.087 C 
ATOM      6  C   UNL     1     -11.459  15.625  69.509  0.00  0.00    +0.031 C 
ATOM      7  C   UNL     1     -12.044  15.915  70.843  0.00  0.00    +0.094 C 
ENDBRANCH   1   2
BRANCH   1   8
ATOM      8  C   UNL     1     -14.320  15.447  72.182  0.00  0.00    +0.279 C 
ATOM      9  O   UNL     1     -14.560  16.405  72.886  0.00  0.00    -0.270 OA
ATOM     10  N   UNL     1     -15.366  14.853  71.405  0.00  0.00    -0.086 NA
ENDBRANCH   1   8
BRANCH   1  12
ATOM     11  C   UNL     1     -12.270  15.163  74.196  0.00  0.00    +0.002 C 
ATOM     12  C   UNL     1     -12.360  15.337  73.588  0.00  0.00    +0.029 C 
ENDBRANCH   1  12
TORSDOF 3
ENDMDL
MODEL 2
REMARK VINA RESULT:      -4.6      6.213      7.469
REMARK  Name = 
REMARK  3 active torsions:
REMARK  status: ('A' for Active; 'I' for Inactive)
REMARK    1  A    between atoms: C_2  and  C_3
REMARK    2  A    between atoms: C_3  and  C_4
REMARK    3  A    between atoms: C_3  and  N_7
REMARK                            x       y       z     vdW  Elec       q    Type
REMARK                         _______ _______ _______ _____ _____    ______ ____
ROOT
ATOM      1  C   UNL     1     -11.410  13.661  64.162  0.00  0.00    +0.155 C 
ENDROOT
BRANCH   1   2
ATOM      2  N   UNL     1     -10.460  14.542  65.052  0.00  0.00    -0.273 N 
ATOM      3  C   UNL     1     -10.623  15.956  65.062  0.00  0.00    +0.226 C 
ATOM      4  O   UNL     1     -11.285  16.691  64.274  0.00  0.00    -0.275 OA
ATOM      5  C   UNL     1      -9.551  16.475  65.935  0.00  0.00    +0.087 C 
ATOM      6  C   UNL     1      -9.296  15.314  66.849  0.00  0.00    +0.031 C 
ATOM      7  C   UNL     1      -9.737  14.065  66.177  0.00  0.00    +0.094 C 
ENDBRANCH   1   2
BRANCH   1   8
ATOM      8  C   UNL     1     -12.310  13.207  65.416  0.00  0.00    +0.279 C 
ATOM      9  O   UNL     1     -12.313  12.061  65.813  0.00  0.00    -0.270 OA
ATOM     10  N   UNL     1     -13.509  13.987  65.486  0.00  0.00    -0.086 NA
ENDBRANCH   1   8
BRANCH   1  12
ATOM     11  C   UNL     1     -10.226  12.092  63.655  0.00  0.00    +0.002 C 
ATOM     12  C   UNL     1     -10.398  12.361  64.208  0.00  0.00    +0.029 C 
ENDBRANCH   1  12
TORSDOF 3
ENDMDL
MODEL 3
REMARK VINA RESULT:      -4.4      5.662      6.893
REMARK  Name = 
REMARK  3 active torsions:
REMARK  status: ('A' for Active; 'I' for Inactive)
REMARK    1  A    between atoms: C_2  and  C_3
REMARK    2  A    between atoms: C_3  and  C_4
REMARK    3  A    between atoms: C_3  and  N_7
REMARK                            x       y       z     vdW  Elec       q    Type
REMARK                         _______ _______ _______ _____ _____    ______ ____
ROOT
ATOM      1  C   UNL     1     -11.033  15.073  66.497  0.00  0.00    +0.155 C 
ENDROOT
BRANCH   1   2
ATOM      2  N   UNL     1     -11.216  13.860  65.515  0.00  0.00    -0.273 N 
ATOM      3  C   UNL     1     -12.513  13.560  65.008  0.00  0.00    +0.226 C 
ATOM      4  O   UNL     1     -13.640  13.979  65.397  0.00  0.00    -0.275 OA
ATOM      5  C   UNL     1     -12.347  12.348  64.180  0.00  0.00    +0.087 C 
ATOM      6  C   UNL     1     -10.913  12.447  63.756  0.00  0.00    +0.031 C 
ATOM      7  C   UNL     1     -10.177  13.288  64.735  0.00  0.00    +0.094 C 
ENDBRANCH   1   2
BRANCH   1   8
ATOM      8  C   UNL     1     -10.159  15.913  65.438  0.00  0.00    +0.279 C 
ATOM      9  O   UNL     1      -9.070  16.361  65.728  0.00  0.00    -0.270 OA
ATOM     10  N   UNL     1     -11.011  16.635  64.542  0.00  0.00    -0.086 NA
ENDBRANCH   1   8
BRANCH   1  12
ATOM     11  C   UNL     1      -9.810  14.209  67.869  0.00  0.00    +0.002 C 
ATOM     12  C   UNL     1      -9.745  14.380  67.257  0.00  0.00    +0.029 C 
ENDBRANCH   1  12
TORSDOF 3
ENDMDL
MODEL 4
REMARK VINA RESULT:      -4.4      5.320      7.165
REMARK  Name = 
REMARK  3 active torsions:
REMARK  status: ('A' for Active; 'I' for Inactive)
REMARK    1  A    between atoms: C_2  and  C_3
REMARK    2  A    between atoms: C_3  and  C_4
REMARK    3  A    between atoms: C_3  and  N_7
REMARK                            x       y       z     vdW  Elec       q    Type
REMARK                         _______ _______ _______ _____ _____    ______ ____
ROOT
ATOM      1  C   UNL     1     -10.791  13.618  64.554  0.00  0.00    +0.155 C 
ENDROOT
BRANCH   1   2
ATOM      2  N   UNL     1     -11.130  13.251  66.045  0.00  0.00    -0.273 N 
ATOM      3  C   UNL     1     -10.170  12.550  66.828  0.00  0.00    +0.226 C 
ATOM      4  O   UNL     1      -9.125  11.943  66.458  0.00  0.00    -0.275 OA
ATOM      5  C   UNL     1     -10.817  12.314  68.135  0.00  0.00    +0.087 C 
ATOM      6  C   UNL     1     -11.799  13.444  68.212  0.00  0.00    +0.031 C 
ATOM      7  C   UNL     1     -12.108  13.910  66.835  0.00  0.00    +0.094 C 
ENDBRANCH   1   2
BRANCH   1   8
ATOM      8  C   UNL     1     -11.643  14.982  64.603  0.00  0.00    +0.279 C 
ATOM      9  O   UNL     1     -12.663  15.116  63.961  0.00  0.00    -0.270 OA
ATOM     10  N   UNL     1     -10.782  16.107  64.816  0.00  0.00    -0.086 NA
ENDBRANCH   1   8
BRANCH   1  12
ATOM     11  C   UNL     1     -11.855  12.169  63.611  0.00  0.00    +0.002 C 
ATOM     12  C   UNL     1     -12.010  12.686  63.952  0.00  0.00    +0.029 C 
ENDBRANCH   1  12
TORSDOF 3
ENDMDL
MODEL 5
REMARK VINA RESULT:      -4.4      5.777      7.779
REMARK  Name = 
REMARK  3 active torsions:
REMARK  status: ('A' for Active; 'I' for Inactive)
REMARK    1  A    between atoms: C_2  and  C_3
REMARK    2  A    between atoms: C_3  and  C_4
REMARK    3  A    between atoms: C_3  and  N_7
REMARK                            x       y       z     vdW  Elec       q    Type
REMARK                         _______ _______ _______ _____ _____    ______ ____
ROOT
ATOM      1  C   UNL     1     -10.608  12.744  64.089  0.00  0.00    +0.155 C 
ENDROOT
BRANCH   1   2
ATOM      2  N   UNL     1     -10.686  12.835  65.656  0.00  0.00    -0.273 N 
ATOM      3  C   UNL     1     -10.137  13.968  66.319  0.00  0.00    +0.226 C 
ATOM      4  O   UNL     1      -9.360  14.859  65.871  0.00  0.00    -0.275 OA
ATOM      5  C   UNL     1     -10.319  13.713  67.763  0.00  0.00    +0.087 C 
ATOM      6  C   UNL     1     -11.512  12.806  67.777  0.00  0.00    +0.031 C 
ATOM      7  C   UNL     1     -11.618  12.127  66.460  0.00  0.00    +0.094 C 
ENDBRANCH   1   2
BRANCH   1   8
ATOM      8  C   UNL     1     -12.201  12.888  63.912  0.00  0.00    +0.279 C 
ATOM      9  O   UNL     1     -12.852  12.053  63.323  0.00  0.00    -0.270 OA
ATOM     10  N   UNL     1     -12.576  14.268  63.836  0.00  0.00    -0.086 NA
ENDBRANCH   1   8
BRANCH   1  12
ATOM     11  C   UNL     1     -10.079  10.796  63.863  0.00  0.00    +0.002 C 
ATOM     12  C   UNL     1     -10.593  11.096  64.094  0.00  0.00    +0.029 C 
ENDBRANCH   1  12
TORSDOF 3
ENDMDL
MODEL 6
REMARK VINA RESULT:      -4.3      7.028      7.865
REMARK  Name = 
REMARK  3 active torsions:
REMARK  status: ('A' for Active; 'I' for Inactive)
REMARK    1  A    between atoms: C_2  and  C_3
REMARK    2  A    between atoms: C_3  and  C_4
REMARK    3  A    between atoms: C_3  and  N_7
REMARK                            x       y       z     vdW  Elec       q    Type
REMARK                         _______ _______ _______ _____ _____    ______ ____
ROOT
ATOM      1  C   UNL     1     -11.320  13.038  65.509  0.00  0.00    +0.155 C 
ENDROOT
BRANCH   1   2
ATOM      2  N   UNL     1     -10.466  11.927  64.799  0.00  0.00    -0.273 N 
ATOM      3  C   UNL     1     -10.291  10.665  65.435  0.00  0.00    +0.226 C 
ATOM      4  O   UNL     1     -10.528  10.333  66.632  0.00  0.00    -0.275 OA
ATOM      5  C   UNL     1      -9.402   9.890  64.546  0.00  0.00    +0.087 C 
ATOM      6  C   UNL     1      -9.679  10.503  63.207  0.00  0.00    +0.031 C 
ATOM      7  C   UNL     1     -10.202  11.879  63.405  0.00  0.00    +0.094 C 
ENDBRANCH   1   2
BRANCH   1   8
ATOM      8  C   UNL     1     -12.297  13.220  64.244  0.00  0.00    +0.279 C 
ATOM      9  O   UNL     1     -12.545  14.315  63.786  0.00  0.00    -0.270 OA
ATOM     10  N   UNL     1     -13.302  12.199  64.231  0.00  0.00    -0.086 NA
ENDBRANCH   1   8
BRANCH   1  12
ATOM     11  C   UNL     1      -9.923  14.511  65.542  0.00  0.00    +0.002 C 
ATOM     12  C   UNL     1     -10.277  14.241  65.084  0.00  0.00    +0.029 C 
ENDBRANCH   1  12
TORSDOF 3
ENDMDL
MODEL 7
REMARK VINA RESULT:      -4.2      6.326      7.273
REMARK  Name = 
REMARK  3 active torsions:
REMARK  status: ('A' for Active; 'I' for Inactive)
REMARK    1  A    between atoms: C_2  and  C_3
REMARK    2  A    between atoms: C_3  and  C_4
REMARK    3  A    between atoms: C_3  and  N_7
REMARK                            x       y       z     vdW  Elec       q    Type
REMARK                         _______ _______ _______ _____ _____    ______ ____
ROOT
ATOM      1  C   UNL     1      -9.560  18.649  66.228  0.00  0.00    +0.155 C 
ENDROOT
BRANCH   1   2
ATOM      2  N   UNL     1     -10.009  17.162  66.464  0.00  0.00    -0.273 N 
ATOM      3  C   UNL     1     -10.660  16.453  65.415  0.00  0.00    +0.226 C 
ATOM      4  O   UNL     1     -11.169  16.896  64.346  0.00  0.00    -0.275 OA
ATOM      5  C   UNL     1     -10.997  15.129  65.978  0.00  0.00    +0.087 C 
ATOM      6  C   UNL     1      -9.953  14.960  67.039  0.00  0.00    +0.031 C 
ATOM      7  C   UNL     1      -9.461  16.300  67.450  0.00  0.00    +0.094 C 
ENDBRANCH   1   2
BRANCH   1   8
ATOM      8  C   UNL     1      -8.040  18.354  66.669  0.00  0.00    +0.279 C 
ATOM      9  O   UNL     1      -7.525  18.937  67.599  0.00  0.00    -0.270 OA
ATOM     10  N   UNL     1      -7.249  17.983  65.534  0.00  0.00    -0.086 NA
ENDBRANCH   1   8
BRANCH   1  12
ATOM     11  C   UNL     1     -10.471  19.632  67.753  0.00  0.00    +0.002 C 
ATOM     12  C   UNL     1     -10.070  19.136  67.717  0.00  0.00    +0.029 C 
ENDBRANCH   1  12
TORSDOF 3
ENDMDL
MODEL 8
REMARK VINA RESULT:      -4.2      4.619      6.335
REMARK  Name = 
REMARK  3 active torsions:
REMARK  status: ('A' for Active; 'I' for Inactive)
REMARK    1  A    between atoms: C_2  and  C_3
REMARK    2  A    between atoms: C_3  and  C_4
REMARK    3  A    between atoms: C_3  and  N_7
REMARK                            x       y       z     vdW  Elec       q    Type
REMARK                         _______ _______ _______ _____ _____    ______ ____
ROOT
ATOM      1  C   UNL     1      -9.901  16.150  67.223  0.00  0.00    +0.155 C 
ENDROOT
BRANCH   1   2
ATOM      2  N   UNL     1      -9.881  17.717  67.100  0.00  0.00    -0.273 N 
ATOM      3  C   UNL     1     -10.529  18.340  65.996  0.00  0.00    +0.226 C 
ATOM      4  O   UNL     1     -10.952  17.825  64.922  0.00  0.00    -0.275 OA
ATOM      5  C   UNL     1     -10.272  19.787  66.147  0.00  0.00    +0.087 C 
ATOM      6  C   UNL     1     -10.080  19.922  67.628  0.00  0.00    +0.031 C 
ATOM      7  C   UNL     1      -9.662  18.609  68.182  0.00  0.00    +0.094 C 
ENDBRANCH   1   2
BRANCH   1   8
ATOM      8  C   UNL     1     -10.314  16.190  68.778  0.00  0.00    +0.279 C 
ATOM      9  O   UNL     1      -9.654  15.625  69.625  0.00  0.00    -0.270 OA
ATOM     10  N   UNL     1     -11.737  16.268  68.919  0.00  0.00    -0.086 NA
ENDBRANCH   1   8
BRANCH   1  12
ATOM     11  C   UNL     1      -7.911  15.790  67.040  0.00  0.00    +0.002 C 
ATOM     12  C   UNL     1      -8.277  16.059  67.489  0.00  0.00    +0.029 C 
ENDBRANCH   1  12
TORSDOF 3
ENDMDL
MODEL 9
REMARK VINA RESULT:      -4.1      6.092      7.201
REMARK  Name = 
REMARK  3 active torsions:
REMARK  status: ('A' for Active; 'I' for Inactive)
REMARK    1  A    between atoms: C_2  and  C_3
REMARK    2  A    between atoms: C_3  and  C_4
REMARK    3  A    between atoms: C_3  and  N_7
REMARK                            x       y       z     vdW  Elec       q    Type
REMARK                         _______ _______ _______ _____ _____    ______ ____
ROOT
ATOM      1  C   UNL     1      -8.993  16.356  66.104  0.00  0.00    +0.155 C 
ENDROOT
BRANCH   1   2
ATOM      2  N   UNL     1      -9.292  17.742  66.781  0.00  0.00    -0.273 N 
ATOM      3  C   UNL     1      -8.616  18.907  66.317  0.00  0.00    +0.226 C 
ATOM      4  O   UNL     1      -7.603  18.999  65.567  0.00  0.00    -0.275 OA
ATOM      5  C   UNL     1      -9.071  20.006  67.192  0.00  0.00    +0.087 C 
ATOM      6  C   UNL     1     -10.422  19.526  67.629  0.00  0.00    +0.031 C 
ATOM      7  C   UNL     1     -10.469  18.046  67.513  0.00  0.00    +0.094 C 
ENDBRANCH   1   2
BRANCH   1   8
ATOM      8  C   UNL     1     -10.547  16.066  65.805  0.00  0.00    +0.279 C 
ATOM      9  O   UNL     1     -11.089  15.052  66.191  0.00  0.00    -0.270 OA
ATOM     10  N   UNL     1     -10.940  16.654  64.560  0.00  0.00    -0.086 NA
ENDBRANCH   1   8
BRANCH   1  12
ATOM     11  C   UNL     1      -8.389  15.348  67.760  0.00  0.00    +0.002 C 
ATOM     12  C   UNL     1      -8.953  15.557  67.545  0.00  0.00    +0.029 C 
ENDBRANCH   1  12
TORSDOF 3
ENDMDL
