MODEL 1
REMARK VINA RESULT:      -7.6      0.000      0.000
REMARK  Name = 
REMARK  5 active torsions:
REMARK  status: ('A' for Active; 'I' for Inactive)
REMARK    1  A    between atoms: C_5  and  C_6
REMARK    2  A    between atoms: C_8  and  C_9
REMARK    3  A    between atoms: C_18  and  C_19
REMARK    4  A    between atoms: C_19  and  C_20
REMARK    5  A    between atoms: C_23  and  C_24
REMARK                            x       y       z     vdW  Elec       q    Type
REMARK                         _______ _______ _______ _____ _____    ______ ____
ROOT
ATOM      1  C   UNL     1     -11.508  11.477  63.500  0.00  0.00    +0.031 C 
ATOM      2  C   UNL     1     -11.512  12.273  63.771  0.00  0.00    -0.025 A 
ATOM      3  C   UNL     1     -10.338  12.488  64.484  0.00  0.00    -0.021 A 
ATOM      4  C   UNL     1     -10.058  13.767  64.964  0.00  0.00    -0.006 A 
ATOM      5  C   UNL     1     -11.189  14.423  65.470  0.00  0.00    +0.007 A 
ATOM      6  C   UNL     1     -12.184  14.493  64.539  0.00  0.00    -0.002 A 
ATOM      7  C   UNL     1     -12.385  13.357  63.760  0.00  0.00    -0.005 A 
ENDROOT
BRANCH   5   8
ATOM      8  C   UNL     1     -10.840  15.737  66.328  0.00  0.00    +0.170 C 
ATOM      9  C   UNL     1     -10.624  14.807  67.753  0.00  0.00    +0.216 C 
ATOM     10  O   UNL     1     -12.059  15.006  68.130  0.00  0.00    -0.217 OA
ATOM     11  C   UNL     1     -10.164  16.175  68.665  0.00  0.00    +0.218 C 
ATOM     12  O   UNL     1      -9.839  15.304  69.843  0.00  0.00    -0.217 OA
ATOM     13  C   UNL     1      -8.547  16.087  68.120  0.00  0.00    +0.214 C 
ATOM     14  O   UNL     1      -8.205  17.375  68.809  0.00  0.00    -0.218 OA
ATOM     15  C   UNL     1      -8.981  16.957  66.704  0.00  0.00    +0.181 C 
ATOM     16  O   UNL     1      -9.351  15.656  66.042  0.00  0.00    -0.346 OA
BRANCH  15  17
ATOM     17  C   UNL     1      -7.441  16.865  66.136  0.00  0.00    +0.214 C 
ATOM     18  O   UNL     1      -7.312  18.093  65.486  0.00  0.00    -0.218 OA
ENDBRANCH  15  17
ENDBRANCH   5   8
BRANCH   3  19
ATOM     19  C   UNL     1      -9.656  11.252  65.056  0.00  0.00    +0.059 C 
BRANCH  19  20
ATOM     20  C   UNL     1      -9.692  11.507  66.529  0.00  0.00    +0.012 A 
ATOM     21  S   UNL     1     -11.034  10.958  67.437  0.00  0.00    -0.091 S 
ATOM     22  C   UNL     1     -10.235  10.627  68.920  0.00  0.00    +0.029 A 
ATOM     23  C   UNL     1      -9.017  11.201  68.700  0.00  0.00    +0.007 A 
ATOM     24  C   UNL     1      -8.665  11.269  67.390  0.00  0.00    +0.003 A 
BRANCH  22  25
ATOM     25  C   UNL     1     -10.818  10.416  70.252  0.00  0.00    +0.006 A 
ATOM     26  C   UNL     1     -10.682   9.170  70.830  0.00  0.00    +0.003 A 
ATOM     27  C   UNL     1     -11.595   8.658  71.729  0.00  0.00    +0.030 A 
ATOM     28  C   UNL     1     -12.853   9.247  71.732  0.00  0.00    +0.140 A 
ATOM     29  F   UNL     1     -13.797   8.741  72.537  0.00  0.00    -0.204 F 
ATOM     30  C   UNL     1     -13.056  10.496  71.181  0.00  0.00    +0.030 A 
ATOM     31  C   UNL     1     -11.985  11.103  70.541  0.00  0.00    +0.003 A 
ENDBRANCH  22  25
ENDBRANCH  19  20
ENDBRANCH   3  19
TORSDOF 5
ENDMDL
MODEL 2
REMARK VINA RESULT:      -7.4      3.045      5.298
REMARK  Name = 
REMARK  5 active torsions:
REMARK  status: ('A' for Active; 'I' for Inactive)
REMARK    1  A    between atoms: C_5  and  C_6
REMARK    2  A    between atoms: C_8  and  C_9
REMARK    3  A    between atoms: C_18  and  C_19
REMARK    4  A    between atoms: C_19  and  C_20
REMARK    5  A    between atoms: C_23  and  C_24
REMARK                            x       y       z     vdW  Elec       q    Type
REMARK                         _______ _______ _______ _____ _____    ______ ____
ROOT
ATOM      1  C   UNL     1      -8.787   8.387  68.225  0.00  0.00    +0.031 C 
ATOM      2  C   UNL     1      -8.710   9.014  67.669  0.00  0.00    -0.025 A 
ATOM      3  C   UNL     1      -9.754   9.906  67.885  0.00  0.00    -0.021 A 
ATOM      4  C   UNL     1      -9.799  11.089  67.148  0.00  0.00    -0.006 A 
ATOM      5  C   UNL     1      -9.434  10.916  65.806  0.00  0.00    +0.007 A 
ATOM      6  C   UNL     1      -8.193  10.357  65.695  0.00  0.00    -0.002 A 
ATOM      7  C   UNL     1      -7.892   9.334  66.590  0.00  0.00    -0.005 A 
ENDROOT
BRANCH   5   8
ATOM      8  C   UNL     1      -9.801  12.171  64.871  0.00  0.00    +0.170 C 
ATOM      9  C   UNL     1     -11.284  11.445  64.402  0.00  0.00    +0.216 C 
ATOM     10  O   UNL     1     -10.629  10.818  63.212  0.00  0.00    -0.217 OA
ATOM     11  C   UNL     1     -11.739  12.804  63.472  0.00  0.00    +0.218 C 
ATOM     12  O   UNL     1     -13.087  12.199  63.214  0.00  0.00    -0.217 OA
ATOM     13  C   UNL     1     -12.343  13.631  64.840  0.00  0.00    +0.214 C 
ATOM     14  O   UNL     1     -12.594  14.867  64.029  0.00  0.00    -0.218 OA
ATOM     15  C   UNL     1     -10.757  14.186  65.199  0.00  0.00    +0.181 C 
ATOM     16  O   UNL     1     -10.513  12.923  65.981  0.00  0.00    -0.346 OA
BRANCH  15  17
ATOM     17  C   UNL     1     -11.300  14.969  66.539  0.00  0.00    +0.214 C 
ATOM     18  O   UNL     1     -10.104  15.232  67.209  0.00  0.00    -0.218 OA
ENDBRANCH  15  17
ENDBRANCH   5   8
BRANCH   3  19
ATOM     19  C   UNL     1     -10.989   9.350  68.582  0.00  0.00    +0.059 C 
BRANCH  19  20
ATOM     20  C   UNL     1     -11.201  10.321  69.700  0.00  0.00    +0.012 A 
ATOM     21  S   UNL     1     -11.478  11.968  69.331  0.00  0.00    -0.091 S 
ATOM     22  C   UNL     1     -12.511  12.365  70.643  0.00  0.00    +0.029 A 
ATOM     23  C   UNL     1     -12.379  11.260  71.431  0.00  0.00    +0.007 A 
ATOM     24  C   UNL     1     -12.045  10.132  70.751  0.00  0.00    +0.003 A 
BRANCH  22  25
ATOM     25  C   UNL     1     -12.894  13.692  71.144  0.00  0.00    +0.006 A 
ATOM     26  C   UNL     1     -12.223  14.791  70.648  0.00  0.00    +0.003 A 
ATOM     27  C   UNL     1     -12.049  15.953  71.373  0.00  0.00    +0.030 A 
ATOM     28  C   UNL     1     -12.209  15.849  72.748  0.00  0.00    +0.140 A 
ATOM     29  F   UNL     1     -11.983  16.933  73.505  0.00  0.00    -0.204 F 
ATOM     30  C   UNL     1     -12.880  14.782  73.310  0.00  0.00    +0.030 A 
ATOM     31  C   UNL     1     -13.307  13.768  72.464  0.00  0.00    +0.003 A 
ENDBRANCH  22  25
ENDBRANCH  19  20
ENDBRANCH   3  19
TORSDOF 5
ENDMDL
MODEL 3
REMARK VINA RESULT:      -7.4      3.771      6.461
REMARK  Name = 
REMARK  5 active torsions:
REMARK  status: ('A' for Active; 'I' for Inactive)
REMARK    1  A    between atoms: C_5  and  C_6
REMARK    2  A    between atoms: C_8  and  C_9
REMARK    3  A    between atoms: C_18  and  C_19
REMARK    4  A    between atoms: C_19  and  C_20
REMARK    5  A    between atoms: C_23  and  C_24
REMARK                            x       y       z     vdW  Elec       q    Type
REMARK                         _______ _______ _______ _____ _____    ______ ____
ROOT
ATOM      1  C   UNL     1     -10.917  19.464  67.132  0.00  0.00    +0.031 C 
ATOM      2  C   UNL     1     -10.089  19.603  67.181  0.00  0.00    -0.025 A 
ATOM      3  C   UNL     1      -9.458  18.371  67.319  0.00  0.00    -0.021 A 
ATOM      4  C   UNL     1      -8.064  18.320  67.327  0.00  0.00    -0.006 A 
ATOM      5  C   UNL     1      -7.480  19.371  68.048  0.00  0.00    +0.007 A 
ATOM      6  C   UNL     1      -7.889  20.586  67.578  0.00  0.00    -0.002 A 
ATOM      7  C   UNL     1      -9.233  20.698  67.237  0.00  0.00    -0.005 A 
ENDROOT
BRANCH   5   8
ATOM      8  C   UNL     1      -5.919  19.149  68.358  0.00  0.00    +0.170 C 
ATOM      9  C   UNL     1      -6.204  19.175  70.050  0.00  0.00    +0.216 C 
ATOM     10  O   UNL     1      -5.949  20.649  70.095  0.00  0.00    -0.217 OA
ATOM     11  C   UNL     1      -4.565  18.850  70.406  0.00  0.00    +0.218 C 
ATOM     12  O   UNL     1      -4.887  18.729  71.866  0.00  0.00    -0.217 OA
ATOM     13  C   UNL     1      -4.775  17.168  70.191  0.00  0.00    +0.214 C 
ATOM     14  O   UNL     1      -3.304  16.926  70.358  0.00  0.00    -0.218 OA
ATOM     15  C   UNL     1      -4.553  17.360  68.499  0.00  0.00    +0.181 C 
ATOM     16  O   UNL     1      -6.026  17.635  68.357  0.00  0.00    -0.346 OA
BRANCH  15  17
ATOM     17  C   UNL     1      -4.778  15.750  68.254  0.00  0.00    +0.214 C 
ATOM     18  O   UNL     1      -5.574  15.754  67.107  0.00  0.00    -0.218 OA
ENDBRANCH  15  17
ENDBRANCH   5   8
BRANCH   3  19
ATOM     19  C   UNL     1     -10.304  17.233  67.873  0.00  0.00    +0.059 C 
BRANCH  19  20
ATOM     20  C   UNL     1     -10.086  16.143  66.874  0.00  0.00    +0.012 A 
ATOM     21  S   UNL     1     -10.430  14.527  67.317  0.00  0.00    -0.091 S 
ATOM     22  C   UNL     1     -10.928  13.932  65.785  0.00  0.00    +0.029 A 
ATOM     23  C   UNL     1     -10.557  14.957  64.967  0.00  0.00    +0.007 A 
ATOM     24  C   UNL     1     -10.513  16.168  65.582  0.00  0.00    +0.003 A 
BRANCH  22  25
ATOM     25  C   UNL     1     -11.075  12.538  65.344  0.00  0.00    +0.006 A 
ATOM     26  C   UNL     1     -10.529  11.546  66.132  0.00  0.00    +0.003 A 
ATOM     27  C   UNL     1     -10.088  10.341  65.623  0.00  0.00    +0.030 A 
ATOM     28  C   UNL     1      -9.833  10.307  64.258  0.00  0.00    +0.140 A 
ATOM     29  F   UNL     1      -9.336   9.182  63.726  0.00  0.00    -0.204 F 
ATOM     30  C   UNL     1     -10.357  11.262  63.410  0.00  0.00    +0.030 A 
ATOM     31  C   UNL     1     -11.069  12.310  63.977  0.00  0.00    +0.003 A 
ENDBRANCH  22  25
ENDBRANCH  19  20
ENDBRANCH   3  19
TORSDOF 5
ENDMDL
MODEL 4
REMARK VINA RESULT:      -7.2      3.896      5.941
REMARK  Name = 
REMARK  5 active torsions:
REMARK  status: ('A' for Active; 'I' for Inactive)
REMARK    1  A    between atoms: C_5  and  C_6
REMARK    2  A    between atoms: C_8  and  C_9
REMARK    3  A    between atoms: C_18  and  C_19
REMARK    4  A    between atoms: C_19  and  C_20
REMARK    5  A    between atoms: C_23  and  C_24
REMARK                            x       y       z     vdW  Elec       q    Type
REMARK                         _______ _______ _______ _____ _____    ______ ____
ROOT
ATOM      1  C   UNL     1     -12.077  14.818  64.612  0.00  0.00    +0.031 C 
ATOM      2  C   UNL     1     -11.968  13.997  64.467  0.00  0.00    -0.025 A 
ATOM      3  C   UNL     1     -11.076  13.511  65.417  0.00  0.00    -0.021 A 
ATOM      4  C   UNL     1     -10.797  12.146  65.451  0.00  0.00    -0.006 A 
ATOM      5  C   UNL     1     -10.674  11.578  64.176  0.00  0.00    +0.007 A 
ATOM      6  C   UNL     1     -11.791  11.796  63.422  0.00  0.00    -0.002 A 
ATOM      7  C   UNL     1     -12.367  13.060  63.520  0.00  0.00    -0.005 A 
ENDROOT
BRANCH   5   8
ATOM      8  C   UNL     1     -10.025  10.107  64.186  0.00  0.00    +0.170 C 
ATOM      9  C   UNL     1      -8.464  10.743  63.867  0.00  0.00    +0.216 C 
ATOM     10  O   UNL     1      -8.673  10.583  62.394  0.00  0.00    -0.217 OA
ATOM     11  C   UNL     1      -7.736   9.201  63.961  0.00  0.00    +0.218 C 
ATOM     12  O   UNL     1      -6.374   9.816  63.833  0.00  0.00    -0.217 OA
ATOM     13  C   UNL     1      -7.637   9.270  65.666  0.00  0.00    +0.214 C 
ATOM     14  O   UNL     1      -7.140   7.856  65.730  0.00  0.00    -0.218 OA
ATOM     15  C   UNL     1      -9.256   8.707  65.778  0.00  0.00    +0.181 C 
ATOM     16  O   UNL     1      -9.737  10.130  65.676  0.00  0.00    -0.346 OA
BRANCH  15  17
ATOM     17  C   UNL     1      -9.205   8.789  67.419  0.00  0.00    +0.214 C 
ATOM     18  O   UNL     1     -10.418   9.419  67.702  0.00  0.00    -0.218 OA
ENDBRANCH  15  17
ENDBRANCH   5   8
BRANCH   3  19
ATOM     19  C   UNL     1     -10.150  14.534  66.064  0.00  0.00    +0.059 C 
BRANCH  19  20
ATOM     20  C   UNL     1     -10.439  14.365  67.521  0.00  0.00    +0.012 A 
ATOM     21  S   UNL     1     -11.081  15.683  68.401  0.00  0.00    -0.091 S 
ATOM     22  C   UNL     1     -12.032  14.811  69.532  0.00  0.00    +0.029 A 
ATOM     23  C   UNL     1     -11.598  13.536  69.320  0.00  0.00    +0.007 A 
ATOM     24  C   UNL     1     -11.114  13.317  68.069  0.00  0.00    +0.003 A 
BRANCH  22  25
ATOM     25  C   UNL     1     -12.623  15.280  70.794  0.00  0.00    +0.006 A 
ATOM     26  C   UNL     1     -11.923  16.214  71.530  0.00  0.00    +0.003 A 
ATOM     27  C   UNL     1     -12.025  16.314  72.903  0.00  0.00    +0.030 A 
ATOM     28  C   UNL     1     -12.530  15.203  73.565  0.00  0.00    +0.140 A 
ATOM     29  F   UNL     1     -12.583  15.223  74.905  0.00  0.00    -0.204 F 
ATOM     30  C   UNL     1     -13.249  14.237  72.891  0.00  0.00    +0.030 A 
ATOM     31  C   UNL     1     -13.370  14.362  71.515  0.00  0.00    +0.003 A 
ENDBRANCH  22  25
ENDBRANCH  19  20
ENDBRANCH   3  19
TORSDOF 5
ENDMDL
MODEL 5
REMARK VINA RESULT:      -7.1      4.070      6.762
REMARK  Name = 
REMARK  5 active torsions:
REMARK  status: ('A' for Active; 'I' for Inactive)
REMARK    1  A    between atoms: C_5  and  C_6
REMARK    2  A    between atoms: C_8  and  C_9
REMARK    3  A    between atoms: C_18  and  C_19
REMARK    4  A    between atoms: C_19  and  C_20
REMARK    5  A    between atoms: C_23  and  C_24
REMARK                            x       y       z     vdW  Elec       q    Type
REMARK                         _______ _______ _______ _____ _____    ______ ____
ROOT
ATOM      1  C   UNL     1      -9.306  10.826  64.889  0.00  0.00    +0.031 C 
ATOM      2  C   UNL     1      -9.577  10.200  65.381  0.00  0.00    -0.025 A 
ATOM      3  C   UNL     1     -10.076  10.761  66.551  0.00  0.00    -0.021 A 
ATOM      4  C   UNL     1     -10.676   9.933  67.499  0.00  0.00    -0.006 A 
ATOM      5  C   UNL     1     -10.008   8.712  67.665  0.00  0.00    +0.007 A 
ATOM      6  C   UNL     1      -9.894   8.041  66.481  0.00  0.00    -0.002 A 
ATOM      7  C   UNL     1      -9.583   8.808  65.362  0.00  0.00    -0.005 A 
ENDROOT
BRANCH   5   8
ATOM      8  C   UNL     1     -10.469   7.898  68.972  0.00  0.00    +0.170 C 
ATOM      9  C   UNL     1      -8.951   8.162  69.728  0.00  0.00    +0.216 C 
ATOM     10  O   UNL     1      -8.425   6.874  69.176  0.00  0.00    -0.217 OA
ATOM     11  C   UNL     1      -9.447   7.379  71.163  0.00  0.00    +0.218 C 
ATOM     12  O   UNL     1      -8.165   7.766  71.838  0.00  0.00    -0.217 OA
ATOM     13  C   UNL     1     -10.215   8.787  71.753  0.00  0.00    +0.214 C 
ATOM     14  O   UNL     1     -10.765   8.037  72.930  0.00  0.00    -0.218 OA
ATOM     15  C   UNL     1     -11.620   8.397  70.846  0.00  0.00    +0.181 C 
ATOM     16  O   UNL     1     -11.035   9.124  69.665  0.00  0.00    -0.346 OA
BRANCH  15  17
ATOM     17  C   UNL     1     -12.377   9.758  71.372  0.00  0.00    +0.214 C 
ATOM     18  O   UNL     1     -13.648   9.267  71.674  0.00  0.00    -0.218 OA
ENDBRANCH  15  17
ENDBRANCH   5   8
BRANCH   3  19
ATOM     19  C   UNL     1      -9.562  12.149  66.911  0.00  0.00    +0.059 C 
BRANCH  19  20
ATOM     20  C   UNL     1     -10.759  12.793  67.533  0.00  0.00    +0.012 A 
ATOM     21  S   UNL     1     -10.849  12.913  69.237  0.00  0.00    -0.091 S 
ATOM     22  C   UNL     1     -11.725  14.384  69.355  0.00  0.00    +0.029 A 
ATOM     23  C   UNL     1     -12.116  14.566  68.061  0.00  0.00    +0.007 A 
ATOM     24  C   UNL     1     -11.297  13.983  67.147  0.00  0.00    +0.003 A 
BRANCH  22  25
ATOM     25  C   UNL     1     -12.432  14.944  70.515  0.00  0.00    +0.006 A 
ATOM     26  C   UNL     1     -11.838  15.986  71.197  0.00  0.00    +0.003 A 
ATOM     27  C   UNL     1     -12.048  16.218  72.541  0.00  0.00    +0.030 A 
ATOM     28  C   UNL     1     -12.546  15.152  73.279  0.00  0.00    +0.140 A 
ATOM     29  F   UNL     1     -12.702  15.305  74.602  0.00  0.00    -0.204 F 
ATOM     30  C   UNL     1     -13.163  14.083  72.661  0.00  0.00    +0.030 A 
ATOM     31  C   UNL     1     -13.185  14.062  71.274  0.00  0.00    +0.003 A 
ENDBRANCH  22  25
ENDBRANCH  19  20
ENDBRANCH   3  19
TORSDOF 5
ENDMDL
MODEL 6
REMARK VINA RESULT:      -7.1      3.106      5.537
REMARK  Name = 
REMARK  5 active torsions:
REMARK  status: ('A' for Active; 'I' for Inactive)
REMARK    1  A    between atoms: C_5  and  C_6
REMARK    2  A    between atoms: C_8  and  C_9
REMARK    3  A    between atoms: C_18  and  C_19
REMARK    4  A    between atoms: C_19  and  C_20
REMARK    5  A    between atoms: C_23  and  C_24
REMARK                            x       y       z     vdW  Elec       q    Type
REMARK                         _______ _______ _______ _____ _____    ______ ____
ROOT
ATOM      1  C   UNL     1     -10.825  19.272  66.965  0.00  0.00    +0.031 C 
ATOM      2  C   UNL     1      -9.984  19.293  66.970  0.00  0.00    -0.025 A 
ATOM      3  C   UNL     1      -9.531  18.142  67.606  0.00  0.00    -0.021 A 
ATOM      4  C   UNL     1      -8.161  17.891  67.662  0.00  0.00    -0.006 A 
ATOM      5  C   UNL     1      -7.401  19.043  67.907  0.00  0.00    +0.007 A 
ATOM      6  C   UNL     1      -7.649  20.012  66.979  0.00  0.00    -0.002 A 
ATOM      7  C   UNL     1      -8.977  20.177  66.596  0.00  0.00    -0.005 A 
ENDROOT
BRANCH   5   8
ATOM      8  C   UNL     1      -5.876  18.734  68.312  0.00  0.00    +0.170 C 
ATOM      9  C   UNL     1      -6.211  19.011  69.972  0.00  0.00    +0.216 C 
ATOM     10  O   UNL     1      -5.828  20.451  69.834  0.00  0.00    -0.217 OA
ATOM     11  C   UNL     1      -4.620  18.601  70.437  0.00  0.00    +0.218 C 
ATOM     12  O   UNL     1      -4.998  18.704  71.885  0.00  0.00    -0.217 OA
ATOM     13  C   UNL     1      -4.972  16.928  70.437  0.00  0.00    +0.214 C 
ATOM     14  O   UNL     1      -3.535  16.588  70.698  0.00  0.00    -0.218 OA
ATOM     15  C   UNL     1      -4.680  16.872  68.745  0.00  0.00    +0.181 C 
ATOM     16  O   UNL     1      -6.118  17.248  68.504  0.00  0.00    -0.346 OA
BRANCH  15  17
ATOM     17  C   UNL     1      -5.040  15.268  68.703  0.00  0.00    +0.214 C 
ATOM     18  O   UNL     1      -4.628  14.926  67.415  0.00  0.00    -0.218 OA
ENDBRANCH  15  17
ENDBRANCH   5   8
BRANCH   3  19
ATOM     19  C   UNL     1     -10.509  17.463  68.556  0.00  0.00    +0.059 C 
BRANCH  19  20
ATOM     20  C   UNL     1     -10.431  16.029  68.141  0.00  0.00    +0.012 A 
ATOM     21  S   UNL     1     -10.870  14.813  69.261  0.00  0.00    -0.091 S 
ATOM     22  C   UNL     1     -11.498  13.653  68.161  0.00  0.00    +0.029 A 
ATOM     23  C   UNL     1     -11.098  14.174  66.966  0.00  0.00    +0.007 A 
ATOM     24  C   UNL     1     -10.928  15.522  66.979  0.00  0.00    +0.003 A 
BRANCH  22  25
ATOM     25  C   UNL     1     -11.775  12.228  68.387  0.00  0.00    +0.006 A 
ATOM     26  C   UNL     1     -11.810  11.771  69.689  0.00  0.00    +0.003 A 
ATOM     27  C   UNL     1     -11.490  10.474  70.036  0.00  0.00    +0.030 A 
ATOM     28  C   UNL     1     -10.748   9.754  69.110  0.00  0.00    +0.140 A 
ATOM     29  F   UNL     1     -10.352   8.513  69.429  0.00  0.00    -0.204 F 
ATOM     30  C   UNL     1     -10.680  10.148  67.789  0.00  0.00    +0.030 A 
ATOM     31  C   UNL     1     -11.298  11.339  67.436  0.00  0.00    +0.003 A 
ENDBRANCH  22  25
ENDBRANCH  19  20
ENDBRANCH   3  19
TORSDOF 5
ENDMDL
MODEL 7
REMARK VINA RESULT:      -7.0      3.533      6.531
REMARK  Name = 
REMARK  5 active torsions:
REMARK  status: ('A' for Active; 'I' for Inactive)
REMARK    1  A    between atoms: C_5  and  C_6
REMARK    2  A    between atoms: C_8  and  C_9
REMARK    3  A    between atoms: C_18  and  C_19
REMARK    4  A    between atoms: C_19  and  C_20
REMARK    5  A    between atoms: C_23  and  C_24
REMARK                            x       y       z     vdW  Elec       q    Type
REMARK                         _______ _______ _______ _____ _____    ______ ____
ROOT
ATOM      1  C   UNL     1     -10.709   9.581  70.511  0.00  0.00    +0.031 C 
ATOM      2  C   UNL     1     -11.107  10.254  70.202  0.00  0.00    -0.025 A 
ATOM      3  C   UNL     1     -10.630  10.480  68.916  0.00  0.00    -0.021 A 
ATOM      4  C   UNL     1     -11.203  11.491  68.146  0.00  0.00    -0.006 A 
ATOM      5  C   UNL     1     -11.489  12.648  68.884  0.00  0.00    +0.007 A 
ATOM      6  C   UNL     1     -12.297  12.373  69.950  0.00  0.00    -0.002 A 
ATOM      7  C   UNL     1     -12.019  11.204  70.652  0.00  0.00    -0.005 A 
ENDROOT
BRANCH   5   8
ATOM      8  C   UNL     1     -11.824  13.928  67.971  0.00  0.00    +0.170 C 
ATOM      9  C   UNL     1     -10.182  14.424  67.982  0.00  0.00    +0.216 C 
ATOM     10  O   UNL     1     -10.424  15.284  69.183  0.00  0.00    -0.217 OA
ATOM     11  C   UNL     1     -10.496  15.741  66.940  0.00  0.00    +0.218 C 
ATOM     12  O   UNL     1      -9.030  16.046  66.854  0.00  0.00    -0.217 OA
ATOM     13  C   UNL     1     -10.401  14.755  65.546  0.00  0.00    +0.214 C 
ATOM     14  O   UNL     1     -10.826  15.894  64.668  0.00  0.00    -0.218 OA
ATOM     15  C   UNL     1     -12.044  14.303  65.759  0.00  0.00    +0.181 C 
ATOM     16  O   UNL     1     -11.599  13.187  66.666  0.00  0.00    -0.346 OA
BRANCH  15  17
ATOM     17  C   UNL     1     -11.979  13.324  64.440  0.00  0.00    +0.214 C 
ATOM     18  O   UNL     1     -13.104  12.523  64.634  0.00  0.00    -0.218 OA
ENDBRANCH  15  17
ENDBRANCH   5   8
BRANCH   3  19
ATOM     19  C   UNL     1      -9.255   9.909  68.593  0.00  0.00    +0.059 C 
BRANCH  19  20
ATOM     20  C   UNL     1      -9.336   9.665  67.121  0.00  0.00    +0.012 A 
ATOM     21  S   UNL     1      -8.315  10.550  66.072  0.00  0.00    -0.091 S 
ATOM     22  C   UNL     1      -8.095   9.364  64.851  0.00  0.00    +0.029 A 
ATOM     23  C   UNL     1      -9.032   8.439  65.205  0.00  0.00    +0.007 A 
ATOM     24  C   UNL     1      -9.337   8.439  66.529  0.00  0.00    +0.003 A 
BRANCH  22  25
ATOM     25  C   UNL     1      -7.582   9.535  63.484  0.00  0.00    +0.006 A 
ATOM     26  C   UNL     1      -6.295  10.008  63.329  0.00  0.00    +0.003 A 
ATOM     27  C   UNL     1      -5.892  10.732  62.225  0.00  0.00    +0.030 A 
ATOM     28  C   UNL     1      -6.900  11.318  61.471  0.00  0.00    +0.140 A 
ATOM     29  F   UNL     1      -6.558  12.089  60.429  0.00  0.00    -0.204 F 
ATOM     30  C   UNL     1      -8.207  10.885  61.569  0.00  0.00    +0.030 A 
ATOM     31  C   UNL     1      -8.497   9.911  62.514  0.00  0.00    +0.003 A 
ENDBRANCH  22  25
ENDBRANCH  19  20
ENDBRANCH   3  19
TORSDOF 5
ENDMDL
MODEL 8
REMARK VINA RESULT:      -7.0      2.049      2.845
REMARK  Name = 
REMARK  5 active torsions:
REMARK  status: ('A' for Active; 'I' for Inactive)
REMARK    1  A    between atoms: C_5  and  C_6
REMARK    2  A    between atoms: C_8  and  C_9
REMARK    3  A    between atoms: C_18  and  C_19
REMARK    4  A    between atoms: C_19  and  C_20
REMARK    5  A    between atoms: C_23  and  C_24
REMARK                            x       y       z     vdW  Elec       q    Type
REMARK                         _______ _______ _______ _____ _____    ______ ____
ROOT
ATOM      1  C   UNL     1     -12.816  13.421  65.768  0.00  0.00    +0.031 C 
ATOM      2  C   UNL     1     -12.198  13.967  65.605  0.00  0.00    -0.025 A 
ATOM      3  C   UNL     1     -11.417  14.081  66.750  0.00  0.00    -0.021 A 
ATOM      4  C   UNL     1     -10.263  14.862  66.710  0.00  0.00    -0.006 A 
ATOM      5  C   UNL     1     -10.427  16.049  65.984  0.00  0.00    +0.007 A 
ATOM      6  C   UNL     1     -10.854  15.800  64.711  0.00  0.00    -0.002 A 
ATOM      7  C   UNL     1     -11.818  14.807  64.564  0.00  0.00    -0.005 A 
ENDROOT
BRANCH   5   8
ATOM      8  C   UNL     1      -9.241  17.110  66.208  0.00  0.00    +0.170 C 
ATOM      9  C   UNL     1     -10.316  18.228  66.941  0.00  0.00    +0.216 C 
ATOM     10  O   UNL     1     -10.578  18.880  65.620  0.00  0.00    -0.217 OA
ATOM     11  C   UNL     1      -9.057  19.335  67.270  0.00  0.00    +0.218 C 
ATOM     12  O   UNL     1     -10.003  20.210  68.038  0.00  0.00    -0.217 OA
ATOM     13  C   UNL     1      -8.610  18.515  68.702  0.00  0.00    +0.214 C 
ATOM     14  O   UNL     1      -7.421  19.410  68.887  0.00  0.00    -0.218 OA
ATOM     15  C   UNL     1      -7.653  17.430  67.777  0.00  0.00    +0.181 C 
ATOM     16  O   UNL     1      -8.867  16.563  67.573  0.00  0.00    -0.346 OA
BRANCH  15  17
ATOM     17  C   UNL     1      -7.226  16.601  69.130  0.00  0.00    +0.214 C 
ATOM     18  O   UNL     1      -5.959  16.134  68.781  0.00  0.00    -0.218 OA
ENDBRANCH  15  17
ENDBRANCH   5   8
BRANCH   3  19
ATOM     19  C   UNL     1     -12.085  13.706  68.067  0.00  0.00    +0.059 C 
BRANCH  19  20
ATOM     20  C   UNL     1     -11.199  12.621  68.589  0.00  0.00    +0.012 A 
ATOM     21  S   UNL     1     -11.734  11.670  69.906  0.00  0.00    -0.091 S 
ATOM     22  C   UNL     1     -10.967  10.190  69.495  0.00  0.00    +0.029 A 
ATOM     23  C   UNL     1     -10.135  10.590  68.492  0.00  0.00    +0.007 A 
ATOM     24  C   UNL     1     -10.564  11.692  67.823  0.00  0.00    +0.003 A 
BRANCH  22  25
ATOM     25  C   UNL     1     -10.732   9.010  70.340  0.00  0.00    +0.006 A 
ATOM     26  C   UNL     1     -10.824   7.764  69.754  0.00  0.00    +0.003 A 
ATOM     27  C   UNL     1     -11.193   6.633  70.454  0.00  0.00    +0.030 A 
ATOM     28  C   UNL     1     -11.856   6.842  71.655  0.00  0.00    +0.140 A 
ATOM     29  F   UNL     1     -12.297   5.776  72.339  0.00  0.00    -0.204 F 
ATOM     30  C   UNL     1     -11.797   8.060  72.301  0.00  0.00    +0.030 A 
ATOM     31  C   UNL     1     -11.131   9.098  71.664  0.00  0.00    +0.003 A 
ENDBRANCH  22  25
ENDBRANCH  19  20
ENDBRANCH   3  19
TORSDOF 5
ENDMDL
MODEL 9
REMARK VINA RESULT:      -6.9      1.883      2.841
REMARK  Name = 
REMARK  5 active torsions:
REMARK  status: ('A' for Active; 'I' for Inactive)
REMARK    1  A    between atoms: C_5  and  C_6
REMARK    2  A    between atoms: C_8  and  C_9
REMARK    3  A    between atoms: C_18  and  C_19
REMARK    4  A    between atoms: C_19  and  C_20
REMARK    5  A    between atoms: C_23  and  C_24
REMARK                            x       y       z     vdW  Elec       q    Type
REMARK                         _______ _______ _______ _____ _____    ______ ____
ROOT
ATOM      1  C   UNL     1      -8.364   8.906  64.051  0.00  0.00    +0.031 C 
ATOM      2  C   UNL     1      -8.874   9.574  64.099  0.00  0.00    -0.025 A 
ATOM      3  C   UNL     1      -8.720  10.139  65.361  0.00  0.00    -0.021 A 
ATOM      4  C   UNL     1      -9.391  11.323  65.661  0.00  0.00    -0.006 A 
ATOM      5  C   UNL     1     -10.696  11.360  65.149  0.00  0.00    +0.007 A 
ATOM      6  C   UNL     1     -10.708  11.159  63.799  0.00  0.00    -0.002 A 
ATOM      7  C   UNL     1      -9.844  10.184  63.310  0.00  0.00    -0.005 A 
ENDROOT
BRANCH   5   8
ATOM      8  C   UNL     1     -11.594  12.544  65.762  0.00  0.00    +0.170 C 
ATOM      9  C   UNL     1     -10.999  12.241  67.342  0.00  0.00    +0.216 C 
ATOM     10  O   UNL     1     -12.135  11.308  67.618  0.00  0.00    -0.217 OA
ATOM     11  C   UNL     1     -11.875  13.550  68.003  0.00  0.00    +0.218 C 
ATOM     12  O   UNL     1     -11.212  13.346  69.333  0.00  0.00    -0.217 OA
ATOM     13  C   UNL     1     -10.675  14.679  67.548  0.00  0.00    +0.214 C 
ATOM     14  O   UNL     1     -11.530  15.825  68.000  0.00  0.00    -0.218 OA
ATOM     15  C   UNL     1     -11.368  14.777  65.979  0.00  0.00    +0.181 C 
ATOM     16  O   UNL     1     -10.526  13.603  65.556  0.00  0.00    -0.346 OA
BRANCH  15  17
ATOM     17  C   UNL     1     -10.211  15.843  65.500  0.00  0.00    +0.214 C 
ATOM     18  O   UNL     1     -10.911  16.609  64.567  0.00  0.00    -0.218 OA
ENDBRANCH  15  17
ENDBRANCH   5   8
BRANCH   3  19
ATOM     19  C   UNL     1      -8.185   9.222  66.453  0.00  0.00    +0.059 C 
BRANCH  19  20
ATOM     20  C   UNL     1      -9.010   9.606  67.639  0.00  0.00    +0.012 A 
ATOM     21  S   UNL     1     -10.214   8.529  68.201  0.00  0.00    -0.091 S 
ATOM     22  C   UNL     1     -10.143   8.900  69.875  0.00  0.00    +0.029 A 
ATOM     23  C   UNL     1      -9.365  10.020  69.868  0.00  0.00    +0.007 A 
ATOM     24  C   UNL     1      -8.517  10.098  68.810  0.00  0.00    +0.003 A 
BRANCH  22  25
ATOM     25  C   UNL     1     -11.114   8.578  70.930  0.00  0.00    +0.006 A 
ATOM     26  C   UNL     1     -11.746   7.353  70.879  0.00  0.00    +0.003 A 
ATOM     27  C   UNL     1     -13.009   7.139  71.395  0.00  0.00    +0.030 A 
ATOM     28  C   UNL     1     -13.788   8.270  71.602  0.00  0.00    +0.140 A 
ATOM     29  F   UNL     1     -15.047   8.111  72.036  0.00  0.00    -0.204 F 
ATOM     30  C   UNL     1     -13.219   9.525  71.676  0.00  0.00    +0.030 A 
ATOM     31  C   UNL     1     -11.855   9.631  71.442  0.00  0.00    +0.003 A 
ENDBRANCH  22  25
ENDBRANCH  19  20
ENDBRANCH   3  19
TORSDOF 5
ENDMDL
