MODEL 1
REMARK VINA RESULT:      -7.7      0.000      0.000
REMARK  Name = 
REMARK  5 active torsions:
REMARK  status: ('A' for Active; 'I' for Inactive)
REMARK    1  A    between atoms: CA_6  and  N_7
REMARK    2  A    between atoms: C_8  and  C_10
REMARK    3  A    between atoms: C_10  and  O_11
REMARK    4  A    between atoms: O_11  and  C_12
REMARK    5  A    between atoms: CA_21  and  C_22
REMARK                            x       y       z     vdW  Elec       q    Type
REMARK                         _______ _______ _______ _____ _____    ______ ____
ROOT
ATOM      1  C   UNL     1     -10.468  12.180  65.585  0.00  0.00    +0.013 C 
ATOM      2  C   UNL     1     -10.433  12.433  65.603  0.00  0.00    +0.068 C 
ATOM      3  CA  UNL     1     -11.633  13.543  65.727  0.00  0.00    +0.189 C 
ATOM      4  N   UNL     1     -10.901  14.661  64.915  0.00  0.00    -0.259 N 
ATOM      5  C   UNL     1      -9.485  14.807  65.422  0.00  0.00    +0.153 C 
ATOM      6  CA  UNL     1     -10.087  16.179  66.192  0.00  0.00    +0.200 C 
ATOM      7  C   UNL     1     -11.215  16.067  65.048  0.00  0.00    +0.249 C 
ATOM      8  O   UNL     1     -11.239  16.929  64.117  0.00  0.00    -0.273 OA
ATOM      9  S   UNL     1      -9.472  13.470  66.769  0.00  0.00    -0.118 S 
ATOM     10  C   UNL     1      -9.922  12.466  64.191  0.00  0.00    +0.013 C 
ENDROOT
BRANCH   3  11
ATOM     11  C   UNL     1     -12.382  12.954  64.420  0.00  0.00    +0.383 C 
ATOM     12  OXT UNL     1     -12.607  13.926  63.446  0.00  0.00    -0.244 OA
ATOM     13  O   UNL     1     -13.428  12.343  64.800  0.00  0.00    -0.244 OA
ENDBRANCH   3  11
BRANCH   6  14
ATOM     14  N   UNL     1     -10.979  15.479  67.287  0.00  0.00    -0.192 NA
ATOM     15  C   UNL     1     -11.042  16.127  68.539  0.00  0.00    +0.286 C 
ATOM     16  O   UNL     1     -11.262  17.375  68.480  0.00  0.00    -0.269 OA
BRANCH  15  17
ATOM     17  C   UNL     1     -10.560  15.519  69.818  0.00  0.00    +0.291 C 
BRANCH  17  18
ATOM     18  O   UNL     1     -11.314  14.403  70.201  0.00  0.00    -0.466 OA
BRANCH  18  19
ATOM     19  C   UNL     1     -12.189  14.513  71.285  0.00  0.00    +0.139 A 
ATOM     20  C   UNL     1     -13.561  14.565  71.127  0.00  0.00    +0.037 A 
ATOM     21  C   UNL     1     -14.328  15.254  72.052  0.00  0.00    +0.003 A 
ATOM     22  C   UNL     1     -13.768  15.961  73.096  0.00  0.00    +0.000 A 
ATOM     23  C   UNL     1     -12.433  15.767  73.341  0.00  0.00    +0.003 A 
ATOM     24  C   UNL     1     -11.657  15.131  72.409  0.00  0.00    +0.037 A 
ENDBRANCH  18  19
ENDBRANCH  17  18
ENDBRANCH  15  17
ENDBRANCH   6  14
TORSDOF 5
ENDMDL
MODEL 2
REMARK VINA RESULT:      -7.5      1.486      2.096
REMARK  Name = 
REMARK  5 active torsions:
REMARK  status: ('A' for Active; 'I' for Inactive)
REMARK    1  A    between atoms: CA_6  and  N_7
REMARK    2  A    between atoms: C_8  and  C_10
REMARK    3  A    between atoms: C_10  and  O_11
REMARK    4  A    between atoms: O_11  and  C_12
REMARK    5  A    between atoms: CA_21  and  C_22
REMARK                            x       y       z     vdW  Elec       q    Type
REMARK                         _______ _______ _______ _____ _____    ______ ____
ROOT
ATOM      1  C   UNL     1     -10.549  11.981  65.389  0.00  0.00    +0.013 C 
ATOM      2  C   UNL     1     -10.513  12.231  65.429  0.00  0.00    +0.068 C 
ATOM      3  CA  UNL     1     -11.710  13.342  65.582  0.00  0.00    +0.189 C 
ATOM      4  N   UNL     1     -10.927  14.513  64.905  0.00  0.00    -0.259 N 
ATOM      5  C   UNL     1      -9.538  14.601  65.495  0.00  0.00    +0.153 C 
ATOM      6  CA  UNL     1     -10.170  15.911  66.345  0.00  0.00    +0.200 C 
ATOM      7  C   UNL     1     -11.237  15.908  65.138  0.00  0.00    +0.249 C 
ATOM      8  O   UNL     1     -11.205  16.844  64.282  0.00  0.00    -0.273 OA
ATOM      9  S   UNL     1      -9.608  13.157  66.726  0.00  0.00    -0.118 S 
ATOM     10  C   UNL     1      -9.928  12.375  64.053  0.00  0.00    +0.013 C 
ENDROOT
BRANCH   3  11
ATOM     11  C   UNL     1     -12.393  12.871  64.193  0.00  0.00    +0.383 C 
ATOM     12  OXT UNL     1     -12.635  13.936  63.327  0.00  0.00    -0.244 OA
ATOM     13  O   UNL     1     -13.420  12.178  64.468  0.00  0.00    -0.244 OA
ENDBRANCH   3  11
BRANCH   6  14
ATOM     14  N   UNL     1     -11.124  15.135  67.329  0.00  0.00    -0.192 NA
ATOM     15  C   UNL     1     -11.275  15.696  68.615  0.00  0.00    +0.286 C 
ATOM     16  O   UNL     1     -11.504  16.944  68.625  0.00  0.00    -0.269 OA
BRANCH  15  17
ATOM     17  C   UNL     1     -10.872  15.006  69.880  0.00  0.00    +0.291 C 
BRANCH  17  18
ATOM     18  O   UNL     1     -11.967  14.683  70.690  0.00  0.00    -0.466 OA
BRANCH  18  19
ATOM     19  C   UNL     1     -12.505  13.394  70.623  0.00  0.00    +0.139 A 
ATOM     20  C   UNL     1     -13.196  12.825  71.676  0.00  0.00    +0.037 A 
ATOM     21  C   UNL     1     -13.176  11.450  71.840  0.00  0.00    +0.003 A 
ATOM     22  C   UNL     1     -12.427  10.621  71.030  0.00  0.00    +0.000 A 
ATOM     23  C   UNL     1     -11.886  11.171  69.897  0.00  0.00    +0.003 A 
ATOM     24  C   UNL     1     -11.856  12.532  69.749  0.00  0.00    +0.037 A 
ENDBRANCH  18  19
ENDBRANCH  17  18
ENDBRANCH  15  17
ENDBRANCH   6  14
TORSDOF 5
ENDMDL
MODEL 3
REMARK VINA RESULT:      -7.3      2.091      2.623
REMARK  Name = 
REMARK  5 active torsions:
REMARK  status: ('A' for Active; 'I' for Inactive)
REMARK    1  A    between atoms: CA_6  and  N_7
REMARK    2  A    between atoms: C_8  and  C_10
REMARK    3  A    between atoms: C_10  and  O_11
REMARK    4  A    between atoms: O_11  and  C_12
REMARK    5  A    between atoms: CA_21  and  C_22
REMARK                            x       y       z     vdW  Elec       q    Type
REMARK                         _______ _______ _______ _____ _____    ______ ____
ROOT
ATOM      1  C   UNL     1     -10.810  11.724  65.281  0.00  0.00    +0.013 C 
ATOM      2  C   UNL     1     -10.774  11.972  65.331  0.00  0.00    +0.068 C 
ATOM      3  CA  UNL     1     -11.953  13.111  65.356  0.00  0.00    +0.189 C 
ATOM      4  N   UNL     1     -11.062  14.274  64.810  0.00  0.00    -0.259 N 
ATOM      5  C   UNL     1      -9.757  14.312  65.574  0.00  0.00    +0.153 C 
ATOM      6  CA  UNL     1     -10.460  15.623  66.366  0.00  0.00    +0.200 C 
ATOM      7  C   UNL     1     -11.364  15.672  65.034  0.00  0.00    +0.249 C 
ATOM      8  O   UNL     1     -11.201  16.623  64.210  0.00  0.00    -0.273 OA
ATOM      9  S   UNL     1     -10.018  12.847  66.753  0.00  0.00    -0.118 S 
ATOM     10  C   UNL     1     -10.014  12.126  64.044  0.00  0.00    +0.013 C 
ENDROOT
BRANCH   3  11
ATOM     11  C   UNL     1     -12.464  12.686  63.881  0.00  0.00    +0.383 C 
ATOM     12  OXT UNL     1     -12.616  13.780  63.031  0.00  0.00    -0.244 OA
ATOM     13  O   UNL     1     -13.508  11.976  64.010  0.00  0.00    -0.244 OA
ENDBRANCH   3  11
BRANCH   6  14
ATOM     14  N   UNL     1     -11.551  14.853  67.204  0.00  0.00    -0.192 NA
ATOM     15  C   UNL     1     -11.701  15.263  68.546  0.00  0.00    +0.286 C 
ATOM     16  O   UNL     1     -11.780  16.518  68.711  0.00  0.00    -0.269 OA
BRANCH  15  17
ATOM     17  C   UNL     1     -11.450  14.374  69.722  0.00  0.00    +0.291 C 
BRANCH  17  18
ATOM     18  O   UNL     1     -12.445  13.402  69.885  0.00  0.00    -0.466 OA
BRANCH  18  19
ATOM     19  C   UNL     1     -12.119  12.193  70.506  0.00  0.00    +0.139 A 
ATOM     20  C   UNL     1     -11.448  11.180  69.847  0.00  0.00    +0.037 A 
ATOM     21  C   UNL     1     -11.668   9.864  70.217  0.00  0.00    +0.003 A 
ATOM     22  C   UNL     1     -12.594   9.512  71.178  0.00  0.00    +0.000 A 
ATOM     23  C   UNL     1     -13.126  10.521  71.936  0.00  0.00    +0.003 A 
ATOM     24  C   UNL     1     -12.957  11.824  71.550  0.00  0.00    +0.037 A 
ENDBRANCH  18  19
ENDBRANCH  17  18
ENDBRANCH  15  17
ENDBRANCH   6  14
TORSDOF 5
ENDMDL
MODEL 4
REMARK VINA RESULT:      -6.8      3.768      4.376
REMARK  Name = 
REMARK  5 active torsions:
REMARK  status: ('A' for Active; 'I' for Inactive)
REMARK    1  A    between atoms: CA_6  and  N_7
REMARK    2  A    between atoms: C_8  and  C_10
REMARK    3  A    between atoms: C_10  and  O_11
REMARK    4  A    between atoms: O_11  and  C_12
REMARK    5  A    between atoms: CA_21  and  C_22
REMARK                            x       y       z     vdW  Elec       q    Type
REMARK                         _______ _______ _______ _____ _____    ______ ____
ROOT
ATOM      1  C   UNL     1     -10.643  11.024  64.284  0.00  0.00    +0.013 C 
ATOM      2  C   UNL     1     -10.607  11.186  64.479  0.00  0.00    +0.068 C 
ATOM      3  CA  UNL     1     -11.785  12.073  65.196  0.00  0.00    +0.189 C 
ATOM      4  N   UNL     1     -10.884  13.311  65.509  0.00  0.00    -0.259 N 
ATOM      5  C   UNL     1      -9.593  12.848  66.146  0.00  0.00    +0.153 C 
ATOM      6  CA  UNL     1     -10.308  13.383  67.574  0.00  0.00    +0.200 C 
ATOM      7  C   UNL     1     -11.189  14.265  66.554  0.00  0.00    +0.249 C 
ATOM      8  O   UNL     1     -11.010  15.520  66.509  0.00  0.00    -0.273 OA
ATOM      9  S   UNL     1      -9.875  10.971  66.145  0.00  0.00    -0.118 S 
ATOM     10  C   UNL     1      -9.825  12.103  63.581  0.00  0.00    +0.013 C 
ENDROOT
BRANCH   3  11
ATOM     11  C   UNL     1     -12.272  12.670  63.773  0.00  0.00    +0.383 C 
ATOM     12  OXT UNL     1     -12.511  14.042  63.822  0.00  0.00    -0.244 OA
ATOM     13  O   UNL     1     -13.257  11.981  63.368  0.00  0.00    -0.244 OA
ENDBRANCH   3  11
BRANCH   6  14
ATOM     14  N   UNL     1     -11.413  12.271  67.732  0.00  0.00    -0.192 NA
ATOM     15  C   UNL     1     -11.668  11.836  69.051  0.00  0.00    +0.286 C 
ATOM     16  O   UNL     1     -11.815  12.769  69.897  0.00  0.00    -0.269 OA
BRANCH  15  17
ATOM     17  C   UNL     1     -11.452  10.433  69.523  0.00  0.00    +0.291 C 
BRANCH  17  18
ATOM     18  O   UNL     1     -11.454  10.329  70.919  0.00  0.00    -0.466 OA
BRANCH  18  19
ATOM     19  C   UNL     1     -12.133   9.266  71.521  0.00  0.00    +0.139 A 
ATOM     20  C   UNL     1     -11.832   7.945  71.246  0.00  0.00    +0.037 A 
ATOM     21  C   UNL     1     -12.827   6.986  71.337  0.00  0.00    +0.003 A 
ATOM     22  C   UNL     1     -14.138   7.309  71.621  0.00  0.00    +0.000 A 
ATOM     23  C   UNL     1     -14.393   8.584  72.053  0.00  0.00    +0.003 A 
ATOM     24  C   UNL     1     -13.432   9.551  71.921  0.00  0.00    +0.037 A 
ENDBRANCH  18  19
ENDBRANCH  17  18
ENDBRANCH  15  17
ENDBRANCH   6  14
TORSDOF 5
ENDMDL
MODEL 5
REMARK VINA RESULT:      -6.5      3.277      6.128
REMARK  Name = 
REMARK  5 active torsions:
REMARK  status: ('A' for Active; 'I' for Inactive)
REMARK    1  A    between atoms: CA_6  and  N_7
REMARK    2  A    between atoms: C_8  and  C_10
REMARK    3  A    between atoms: C_10  and  O_11
REMARK    4  A    between atoms: O_11  and  C_12
REMARK    5  A    between atoms: CA_21  and  C_22
REMARK                            x       y       z     vdW  Elec       q    Type
REMARK                         _______ _______ _______ _____ _____    ______ ____
ROOT
ATOM      1  C   UNL     1      -9.939  15.103  67.984  0.00  0.00    +0.013 C 
ATOM      2  C   UNL     1     -10.084  14.962  67.828  0.00  0.00    +0.068 C 
ATOM      3  CA  UNL     1      -9.813  14.749  66.225  0.00  0.00    +0.189 C 
ATOM      4  N   UNL     1     -11.320  14.670  65.817  0.00  0.00    -0.259 N 
ATOM      5  C   UNL     1     -12.044  13.717  66.741  0.00  0.00    +0.153 C 
ATOM      6  CA  UNL     1     -11.944  12.653  65.439  0.00  0.00    +0.200 C 
ATOM      7  C   UNL     1     -11.777  14.021  64.606  0.00  0.00    +0.249 C 
ATOM      8  O   UNL     1     -12.722  14.406  63.852  0.00  0.00    -0.273 OA
ATOM      9  S   UNL     1     -10.614  13.208  67.882  0.00  0.00    -0.118 S 
ATOM     10  C   UNL     1     -11.210  15.946  67.975  0.00  0.00    +0.013 C 
ENDROOT
BRANCH   3  11
ATOM     11  C   UNL     1      -9.733  16.345  65.975  0.00  0.00    +0.383 C 
ATOM     12  OXT UNL     1     -10.607  16.776  64.978  0.00  0.00    -0.244 OA
ATOM     13  O   UNL     1      -8.519  16.658  65.777  0.00  0.00    -0.244 OA
ENDBRANCH   3  11
BRANCH   6  14
ATOM     14  N   UNL     1     -10.396  12.361  65.472  0.00  0.00    -0.192 NA
ATOM     15  C   UNL     1     -10.002  11.071  65.056  0.00  0.00    +0.286 C 
ATOM     16  O   UNL     1     -10.532  10.678  63.973  0.00  0.00    -0.269 OA
BRANCH  15  17
ATOM     17  C   UNL     1      -9.305  10.086  65.941  0.00  0.00    +0.291 C 
BRANCH  17  18
ATOM     18  O   UNL     1      -9.884   8.812  65.890  0.00  0.00    -0.466 OA
BRANCH  18  19
ATOM     19  C   UNL     1     -10.545   8.321  67.019  0.00  0.00    +0.139 A 
ATOM     20  C   UNL     1     -10.456   8.934  68.255  0.00  0.00    +0.037 A 
ATOM     21  C   UNL     1     -10.573   8.170  69.404  0.00  0.00    +0.003 A 
ATOM     22  C   UNL     1     -10.703   6.797  69.368  0.00  0.00    +0.000 A 
ATOM     23  C   UNL     1     -10.958   6.222  68.150  0.00  0.00    +0.003 A 
ATOM     24  C   UNL     1     -10.797   6.956  67.005  0.00  0.00    +0.037 A 
ENDBRANCH  18  19
ENDBRANCH  17  18
ENDBRANCH  15  17
ENDBRANCH   6  14
TORSDOF 5
ENDMDL
MODEL 6
REMARK VINA RESULT:      -6.5      3.075      4.880
REMARK  Name = 
REMARK  5 active torsions:
REMARK  status: ('A' for Active; 'I' for Inactive)
REMARK    1  A    between atoms: CA_6  and  N_7
REMARK    2  A    between atoms: C_8  and  C_10
REMARK    3  A    between atoms: C_10  and  O_11
REMARK    4  A    between atoms: O_11  and  C_12
REMARK    5  A    between atoms: CA_21  and  C_22
REMARK                            x       y       z     vdW  Elec       q    Type
REMARK                         _______ _______ _______ _____ _____    ______ ____
ROOT
ATOM      1  C   UNL     1     -10.941  12.666  64.674  0.00  0.00    +0.013 C 
ATOM      2  C   UNL     1     -10.964  12.827  64.872  0.00  0.00    +0.068 C 
ATOM      3  CA  UNL     1     -10.349  12.568  66.370  0.00  0.00    +0.189 C 
ATOM      4  N   UNL     1     -11.504  13.285  67.142  0.00  0.00    -0.259 N 
ATOM      5  C   UNL     1     -11.782  14.627  66.503  0.00  0.00    +0.153 C 
ATOM      6  CA  UNL     1     -10.926  15.236  67.820  0.00  0.00    +0.200 C 
ATOM      7  C   UNL     1     -11.345  13.826  68.475  0.00  0.00    +0.249 C 
ATOM      8  O   UNL     1     -12.206  13.808  69.407  0.00  0.00    -0.273 OA
ATOM      9  S   UNL     1     -10.517  14.591  65.088  0.00  0.00    -0.118 S 
ATOM     10  C   UNL     1     -12.441  12.558  64.931  0.00  0.00    +0.013 C 
ENDROOT
BRANCH   3  11
ATOM     11  C   UNL     1     -11.059  11.118  66.466  0.00  0.00    +0.383 C 
ATOM     12  OXT UNL     1     -11.837  10.977  67.614  0.00  0.00    -0.244 OA
ATOM     13  O   UNL     1     -10.167  10.226  66.327  0.00  0.00    -0.244 OA
ENDBRANCH   3  11
BRANCH   6  14
ATOM     14  N   UNL     1      -9.481  14.744  67.429  0.00  0.00    -0.192 NA
ATOM     15  C   UNL     1      -8.417  15.594  67.801  0.00  0.00    +0.286 C 
ATOM     16  O   UNL     1      -8.464  16.009  68.998  0.00  0.00    -0.269 OA
BRANCH  15  17
ATOM     17  C   UNL     1      -7.493  16.249  66.824  0.00  0.00    +0.291 C 
BRANCH  17  18
ATOM     18  O   UNL     1      -8.171  17.040  65.888  0.00  0.00    -0.466 OA
BRANCH  18  19
ATOM     19  C   UNL     1      -8.665  18.287  66.283  0.00  0.00    +0.139 A 
ATOM     20  C   UNL     1      -7.970  19.122  67.137  0.00  0.00    +0.037 A 
ATOM     21  C   UNL     1      -8.669  19.987  67.962  0.00  0.00    +0.003 A 
ATOM     22  C   UNL     1     -10.048  19.999  68.020  0.00  0.00    +0.000 A 
ATOM     23  C   UNL     1     -10.724  19.295  67.058  0.00  0.00    +0.003 A 
ATOM     24  C   UNL     1     -10.049  18.400  66.271  0.00  0.00    +0.037 A 
ENDBRANCH  18  19
ENDBRANCH  17  18
ENDBRANCH  15  17
ENDBRANCH   6  14
TORSDOF 5
ENDMDL
MODEL 7
REMARK VINA RESULT:      -6.4      3.048      5.024
REMARK  Name = 
REMARK  5 active torsions:
REMARK  status: ('A' for Active; 'I' for Inactive)
REMARK    1  A    between atoms: CA_6  and  N_7
REMARK    2  A    between atoms: C_8  and  C_10
REMARK    3  A    between atoms: C_10  and  O_11
REMARK    4  A    between atoms: O_11  and  C_12
REMARK    5  A    between atoms: CA_21  and  C_22
REMARK                            x       y       z     vdW  Elec       q    Type
REMARK                         _______ _______ _______ _____ _____    ______ ____
ROOT
ATOM      1  C   UNL     1      -9.792  15.763  68.233  0.00  0.00    +0.013 C 
ATOM      2  C   UNL     1      -9.942  15.599  68.107  0.00  0.00    +0.068 C 
ATOM      3  CA  UNL     1      -9.712  15.110  66.558  0.00  0.00    +0.189 C 
ATOM      4  N   UNL     1     -11.229  14.983  66.204  0.00  0.00    -0.259 N 
ATOM      5  C   UNL     1     -11.939  14.212  67.295  0.00  0.00    +0.153 C 
ATOM      6  CA  UNL     1     -11.882  12.939  66.193  0.00  0.00    +0.200 C 
ATOM      7  C   UNL     1     -11.722  14.142  65.134  0.00  0.00    +0.249 C 
ATOM      8  O   UNL     1     -12.682  14.404  64.347  0.00  0.00    -0.273 OA
ATOM      9  S   UNL     1     -10.487  13.888  68.474  0.00  0.00    -0.118 S 
ATOM     10  C   UNL     1     -11.054  16.608  68.108  0.00  0.00    +0.013 C 
ENDROOT
BRANCH   3  11
ATOM     11  C   UNL     1      -9.623  16.639  66.036  0.00  0.00    +0.383 C 
ATOM     12  OXT UNL     1     -10.509  16.901  64.993  0.00  0.00    -0.244 OA
ATOM     13  O   UNL     1      -8.410  16.900  65.769  0.00  0.00    -0.244 OA
ENDBRANCH   3  11
BRANCH   6  14
ATOM     14  N   UNL     1     -10.336  12.636  66.241  0.00  0.00    -0.192 NA
ATOM     15  C   UNL     1      -9.961  11.299  65.989  0.00  0.00    +0.286 C 
ATOM     16  O   UNL     1     -10.511  10.776  64.974  0.00  0.00    -0.269 OA
BRANCH  15  17
ATOM     17  C   UNL     1      -9.259  10.429  66.984  0.00  0.00    +0.291 C 
BRANCH  17  18
ATOM     18  O   UNL     1     -10.142   9.625  67.714  0.00  0.00    -0.466 OA
BRANCH  18  19
ATOM     19  C   UNL     1     -10.421   9.954  69.043  0.00  0.00    +0.139 A 
ATOM     20  C   UNL     1      -9.842   9.288  70.107  0.00  0.00    +0.037 A 
ATOM     21  C   UNL     1     -10.531   9.187  71.304  0.00  0.00    +0.003 A 
ATOM     22  C   UNL     1     -11.817   9.665  71.458  0.00  0.00    +0.000 A 
ATOM     23  C   UNL     1     -12.313  10.465  70.462  0.00  0.00    +0.003 A 
ATOM     24  C   UNL     1     -11.665  10.532  69.257  0.00  0.00    +0.037 A 
ENDBRANCH  18  19
ENDBRANCH  17  18
ENDBRANCH  15  17
ENDBRANCH   6  14
TORSDOF 5
ENDMDL
MODEL 8
REMARK VINA RESULT:      -6.4      3.213      5.489
REMARK  Name = 
REMARK  5 active torsions:
REMARK  status: ('A' for Active; 'I' for Inactive)
REMARK    1  A    between atoms: CA_6  and  N_7
REMARK    2  A    between atoms: C_8  and  C_10
REMARK    3  A    between atoms: C_10  and  O_11
REMARK    4  A    between atoms: O_11  and  C_12
REMARK    5  A    between atoms: CA_21  and  C_22
REMARK                            x       y       z     vdW  Elec       q    Type
REMARK                         _______ _______ _______ _____ _____    ______ ____
ROOT
ATOM      1  C   UNL     1      -6.689  17.108  67.859  0.00  0.00    +0.013 C 
ATOM      2  C   UNL     1      -6.933  17.165  67.809  0.00  0.00    +0.068 C 
ATOM      3  CA  UNL     1      -7.516  17.618  66.345  0.00  0.00    +0.189 C 
ATOM      4  N   UNL     1      -8.601  18.597  66.901  0.00  0.00    -0.259 N 
ATOM      5  C   UNL     1      -9.376  17.916  68.007  0.00  0.00    +0.153 C 
ATOM      6  CA  UNL     1     -10.566  17.742  66.829  0.00  0.00    +0.200 C 
ATOM      7  C   UNL     1      -9.780  18.975  66.153  0.00  0.00    +0.249 C 
ATOM      8  O   UNL     1     -10.328  20.119  66.131  0.00  0.00    -0.273 OA
ATOM      9  S   UNL     1      -8.494  16.235  68.047  0.00  0.00    -0.118 S 
ATOM     10  C   UNL     1      -6.820  18.399  68.659  0.00  0.00    +0.013 C 
ENDROOT
BRANCH   3  11
ATOM     11  C   UNL     1      -6.403  18.783  66.205  0.00  0.00    +0.383 C 
ATOM     12  OXT UNL     1      -6.948  20.000  65.801  0.00  0.00    -0.244 OA
ATOM     13  O   UNL     1      -5.469  18.355  65.460  0.00  0.00    -0.244 OA
ENDBRANCH   3  11
BRANCH   6  14
ATOM     14  N   UNL     1      -9.865  16.662  65.922  0.00  0.00    -0.192 NA
ATOM     15  C   UNL     1     -10.692  16.015  64.978  0.00  0.00    +0.286 C 
ATOM     16  O   UNL     1     -11.429  16.793  64.299  0.00  0.00    -0.269 OA
BRANCH  15  17
ATOM     17  C   UNL     1     -10.967  14.545  64.979  0.00  0.00    +0.291 C 
BRANCH  17  18
ATOM     18  O   UNL     1     -11.937  14.179  65.920  0.00  0.00    -0.466 OA
BRANCH  18  19
ATOM     19  C   UNL     1     -11.527  13.661  67.152  0.00  0.00    +0.139 A 
ATOM     20  C   UNL     1     -11.421  12.303  67.386  0.00  0.00    +0.037 A 
ATOM     21  C   UNL     1     -11.618  11.815  68.667  0.00  0.00    +0.003 A 
ATOM     22  C   UNL     1     -11.992  12.628  69.717  0.00  0.00    +0.000 A 
ATOM     23  C   UNL     1     -11.931  13.982  69.516  0.00  0.00    +0.003 A 
ATOM     24  C   UNL     1     -11.787  14.475  68.247  0.00  0.00    +0.037 A 
ENDBRANCH  18  19
ENDBRANCH  17  18
ENDBRANCH  15  17
ENDBRANCH   6  14
TORSDOF 5
ENDMDL
MODEL 9
REMARK VINA RESULT:      -6.3      4.343      5.050
REMARK  Name = 
REMARK  5 active torsions:
REMARK  status: ('A' for Active; 'I' for Inactive)
REMARK    1  A    between atoms: CA_6  and  N_7
REMARK    2  A    between atoms: C_8  and  C_10
REMARK    3  A    between atoms: C_10  and  O_11
REMARK    4  A    between atoms: O_11  and  C_12
REMARK    5  A    between atoms: CA_21  and  C_22
REMARK                            x       y       z     vdW  Elec       q    Type
REMARK                         _______ _______ _______ _____ _____    ______ ____
ROOT
ATOM      1  C   UNL     1     -10.535  11.820  64.879  0.00  0.00    +0.013 C 
ATOM      2  C   UNL     1     -10.532  11.932  65.110  0.00  0.00    +0.068 C 
ATOM      3  CA  UNL     1     -11.858  12.222  66.029  0.00  0.00    +0.189 C 
ATOM      4  N   UNL     1     -11.329  13.554  66.655  0.00  0.00    -0.259 N 
ATOM      5  C   UNL     1      -9.916  13.352  67.152  0.00  0.00    +0.153 C 
ATOM      6  CA  UNL     1     -10.645  13.278  68.669  0.00  0.00    +0.200 C 
ATOM      7  C   UNL     1     -11.816  14.084  67.911  0.00  0.00    +0.249 C 
ATOM      8  O   UNL     1     -12.008  15.306  68.193  0.00  0.00    -0.273 OA
ATOM      9  S   UNL     1      -9.647  11.537  66.665  0.00  0.00    -0.118 S 
ATOM     10  C   UNL     1     -10.116  13.231  64.482  0.00  0.00    +0.013 C 
ENDROOT
BRANCH   3  11
ATOM     11  C   UNL     1     -12.600  12.982  64.809  0.00  0.00    +0.383 C 
ATOM     12  OXT UNL     1     -13.198  14.177  65.206  0.00  0.00    -0.244 OA
ATOM     13  O   UNL     1     -13.392  12.162  64.251  0.00  0.00    -0.244 OA
ENDBRANCH   3  11
BRANCH   6  14
ATOM     14  N   UNL     1     -11.370  11.886  68.531  0.00  0.00    -0.192 NA
ATOM     15  C   UNL     1     -11.591  11.183  69.735  0.00  0.00    +0.286 C 
ATOM     16  O   UNL     1     -12.084  11.879  70.673  0.00  0.00    -0.269 OA
BRANCH  15  17
ATOM     17  C   UNL     1     -11.000   9.842  70.037  0.00  0.00    +0.291 C 
BRANCH  17  18
ATOM     18  O   UNL     1     -11.402   9.345  71.283  0.00  0.00    -0.466 OA
BRANCH  18  19
ATOM     19  C   UNL     1     -10.632   8.355  71.900  0.00  0.00    +0.139 A 
ATOM     20  C   UNL     1     -11.145   7.521  72.877  0.00  0.00    +0.037 A 
ATOM     21  C   UNL     1     -10.301   7.018  73.853  0.00  0.00    +0.003 A 
ATOM     22  C   UNL     1      -8.971   7.376  73.936  0.00  0.00    +0.000 A 
ATOM     23  C   UNL     1      -8.438   8.062  72.876  0.00  0.00    +0.003 A 
ATOM     24  C   UNL     1      -9.267   8.606  71.932  0.00  0.00    +0.037 A 
ENDBRANCH  18  19
ENDBRANCH  17  18
ENDBRANCH  15  17
ENDBRANCH   6  14
TORSDOF 5
ENDMDL
