MODEL 1
REMARK VINA RESULT:      -4.3      0.000      0.000
REMARK  Name = 
REMARK  2 active torsions:
REMARK  status: ('A' for Active; 'I' for Inactive)
REMARK    1  A    between atoms: C_2  and  C_3
REMARK    2  A    between atoms: C_6  and  C_7
REMARK                            x       y       z     vdW  Elec       q    Type
REMARK                         _______ _______ _______ _____ _____    ______ ____
ROOT
ATOM      1  C   UNL     1     -10.895  13.324  67.791  0.00  0.00    +0.019 C 
ATOM      2  C   UNL     1     -11.757  14.376  66.888  0.00  0.00    +0.002 C 
ATOM      3  C   UNL     1     -11.551  14.028  65.462  0.00  0.00    +0.011 C 
ATOM      4  C   UNL     1     -10.211  14.823  64.951  0.00  0.00    +0.103 C 
ATOM      5  C   UNL     1      -9.431  14.694  66.386  0.00  0.00    +0.011 C 
ATOM      6  C   UNL     1      -9.668  13.222  66.719  0.00  0.00    +0.002 C 
ENDROOT
BRANCH   4   7
ATOM      7  C   UNL     1     -10.825  16.270  65.293  0.00  0.00    +0.364 C 
ATOM      8  O   UNL     1      -9.776  17.111  65.703  0.00  0.00    -0.246 OA
ATOM      9  O   UNL     1     -11.320  16.755  64.223  0.00  0.00    -0.246 OA
ENDBRANCH   4   7
BRANCH   1  11
ATOM     10  N   UNL     1     -12.034  11.304  68.319  0.00  0.00    -0.131 NA
ATOM     11  C   UNL     1     -11.676  12.045  67.144  0.00  0.00    +0.109 C 
ENDBRANCH   1  11
TORSDOF 2
ENDMDL
MODEL 2
REMARK VINA RESULT:      -4.3      3.576      4.485
REMARK  Name = 
REMARK  2 active torsions:
REMARK  status: ('A' for Active; 'I' for Inactive)
REMARK    1  A    between atoms: C_2  and  C_3
REMARK    2  A    between atoms: C_6  and  C_7
REMARK                            x       y       z     vdW  Elec       q    Type
REMARK                         _______ _______ _______ _____ _____    ______ ____
ROOT
ATOM      1  C   UNL     1     -11.809  14.459  64.890  0.00  0.00    +0.019 C 
ATOM      2  C   UNL     1     -12.000  14.355  66.508  0.00  0.00    +0.002 C 
ATOM      3  C   UNL     1     -10.663  14.146  67.112  0.00  0.00    +0.011 C 
ATOM      4  C   UNL     1     -10.380  12.531  67.131  0.00  0.00    +0.103 C 
ATOM      5  C   UNL     1     -11.163  12.248  65.719  0.00  0.00    +0.011 C 
ATOM      6  C   UNL     1     -10.599  13.364  64.841  0.00  0.00    +0.002 C 
ENDROOT
BRANCH   4   7
ATOM      7  C   UNL     1     -11.673  12.219  68.034  0.00  0.00    +0.364 C 
ATOM      8  O   UNL     1     -12.047  10.880  67.827  0.00  0.00    -0.246 OA
ATOM      9  O   UNL     1     -11.342  12.348  69.259  0.00  0.00    -0.246 OA
ENDBRANCH   4   7
BRANCH   1  11
ATOM     10  N   UNL     1     -11.399  16.697  64.198  0.00  0.00    -0.131 NA
ATOM     11  C   UNL     1     -10.777  15.715  65.038  0.00  0.00    +0.109 C 
ENDBRANCH   1  11
TORSDOF 2
ENDMDL
MODEL 3
REMARK VINA RESULT:      -4.3      1.960      2.520
REMARK  Name = 
REMARK  2 active torsions:
REMARK  status: ('A' for Active; 'I' for Inactive)
REMARK    1  A    between atoms: C_2  and  C_3
REMARK    2  A    between atoms: C_6  and  C_7
REMARK                            x       y       z     vdW  Elec       q    Type
REMARK                         _______ _______ _______ _____ _____    ______ ____
ROOT
ATOM      1  C   UNL     1     -12.694  13.621  65.423  0.00  0.00    +0.019 C 
ATOM      2  C   UNL     1     -11.671  14.726  64.794  0.00  0.00    +0.002 C 
ATOM      3  C   UNL     1     -10.287  14.300  65.111  0.00  0.00    +0.011 C 
ATOM      4  C   UNL     1      -9.908  14.917  66.582  0.00  0.00    +0.103 C 
ATOM      5  C   UNL     1     -11.426  14.758  67.181  0.00  0.00    +0.011 C 
ATOM      6  C   UNL     1     -11.770  13.337  66.739  0.00  0.00    +0.002 C 
ENDROOT
BRANCH   4   7
ATOM      7  C   UNL     1     -10.140  16.436  66.109  0.00  0.00    +0.364 C 
ATOM      8  O   UNL     1     -10.553  17.190  67.221  0.00  0.00    -0.246 OA
ATOM      9  O   UNL     1      -9.021  16.903  65.713  0.00  0.00    -0.246 OA
ENDBRANCH   4   7
BRANCH   1  11
ATOM     10  N   UNL     1     -12.981  12.178  63.555  0.00  0.00    -0.131 NA
ATOM     11  C   UNL     1     -11.999  12.413  64.573  0.00  0.00    +0.109 C 
ENDBRANCH   1  11
TORSDOF 2
ENDMDL
MODEL 4
REMARK VINA RESULT:      -4.3      1.515      2.437
REMARK  Name = 
REMARK  2 active torsions:
REMARK  status: ('A' for Active; 'I' for Inactive)
REMARK    1  A    between atoms: C_2  and  C_3
REMARK    2  A    between atoms: C_6  and  C_7
REMARK                            x       y       z     vdW  Elec       q    Type
REMARK                         _______ _______ _______ _____ _____    ______ ____
ROOT
ATOM      1  C   UNL     1     -11.119  11.810  65.194  0.00  0.00    +0.019 C 
ATOM      2  C   UNL     1     -10.461  13.112  64.462  0.00  0.00    +0.002 C 
ATOM      3  C   UNL     1     -10.057  14.073  65.515  0.00  0.00    +0.011 C 
ATOM      4  C   UNL     1     -11.355  15.021  65.840  0.00  0.00    +0.103 C 
ATOM      5  C   UNL     1     -12.449  13.824  65.603  0.00  0.00    +0.011 C 
ATOM      6  C   UNL     1     -11.810  12.681  66.390  0.00  0.00    +0.002 C 
ENDROOT
BRANCH   4   7
ATOM      7  C   UNL     1     -11.458  15.559  64.328  0.00  0.00    +0.364 C 
ATOM      8  O   UNL     1     -12.767  15.336  63.865  0.00  0.00    -0.246 OA
ATOM      9  O   UNL     1     -11.256  16.819  64.340  0.00  0.00    -0.246 OA
ENDBRANCH   4   7
BRANCH   1  11
ATOM     10  N   UNL     1     -10.266  10.762  67.151  0.00  0.00    -0.131 NA
ATOM     11  C   UNL     1      -9.761  11.545  66.061  0.00  0.00    +0.109 C 
ENDBRANCH   1  11
TORSDOF 2
ENDMDL
MODEL 5
REMARK VINA RESULT:      -4.3      3.310      4.055
REMARK  Name = 
REMARK  2 active torsions:
REMARK  status: ('A' for Active; 'I' for Inactive)
REMARK    1  A    between atoms: C_2  and  C_3
REMARK    2  A    between atoms: C_6  and  C_7
REMARK                            x       y       z     vdW  Elec       q    Type
REMARK                         _______ _______ _______ _____ _____    ______ ____
ROOT
ATOM      1  C   UNL     1      -9.569  15.176  66.836  0.00  0.00    +0.019 C 
ATOM      2  C   UNL     1     -10.102  14.390  65.508  0.00  0.00    +0.002 C 
ATOM      3  C   UNL     1     -11.415  14.967  65.133  0.00  0.00    +0.011 C 
ATOM      4  C   UNL     1     -12.567  14.153  65.969  0.00  0.00    +0.103 C 
ATOM      5  C   UNL     1     -11.635  13.948  67.302  0.00  0.00    +0.011 C 
ATOM      6  C   UNL     1     -11.059  15.352  67.479  0.00  0.00    +0.002 C 
ENDROOT
BRANCH   4   7
ATOM      7  C   UNL     1     -12.157  12.733  65.335  0.00  0.00    +0.364 C 
ATOM      8  O   UNL     1     -12.034  11.799  66.378  0.00  0.00    -0.246 OA
ATOM      9  O   UNL     1     -13.108  12.349  64.576  0.00  0.00    -0.246 OA
ENDBRANCH   4   7
BRANCH   1  11
ATOM     10  N   UNL     1      -8.244  16.937  65.940  0.00  0.00    -0.131 NA
ATOM     11  C   UNL     1      -9.637  16.619  66.074  0.00  0.00    +0.109 C 
ENDBRANCH   1  11
TORSDOF 2
ENDMDL
MODEL 6
REMARK VINA RESULT:      -4.2      2.375      3.080
REMARK  Name = 
REMARK  2 active torsions:
REMARK  status: ('A' for Active; 'I' for Inactive)
REMARK    1  A    between atoms: C_2  and  C_3
REMARK    2  A    between atoms: C_6  and  C_7
REMARK                            x       y       z     vdW  Elec       q    Type
REMARK                         _______ _______ _______ _____ _____    ______ ____
ROOT
ATOM      1  C   UNL     1     -10.306  15.664  67.399  0.00  0.00    +0.019 C 
ATOM      2  C   UNL     1     -11.608  14.694  67.230  0.00  0.00    +0.002 C 
ATOM      3  C   UNL     1     -11.124  13.337  66.881  0.00  0.00    +0.011 C 
ATOM      4  C   UNL     1     -10.974  13.273  65.249  0.00  0.00    +0.103 C 
ATOM      5  C   UNL     1     -10.502  14.836  65.104  0.00  0.00    +0.011 C 
ATOM      6  C   UNL     1      -9.455  14.932  66.212  0.00  0.00    +0.002 C 
ENDROOT
BRANCH   4   7
ATOM      7  C   UNL     1     -12.527  13.608  64.999  0.00  0.00    +0.364 C 
ATOM      8  O   UNL     1     -12.627  14.436  63.867  0.00  0.00    -0.246 OA
ATOM      9  O   UNL     1     -13.132  12.516  64.739  0.00  0.00    -0.246 OA
ENDBRANCH   4   7
BRANCH   1  11
ATOM     10  N   UNL     1     -10.024  15.420  69.748  0.00  0.00    -0.131 NA
ATOM     11  C   UNL     1      -9.674  14.702  68.557  0.00  0.00    +0.109 C 
ENDBRANCH   1  11
TORSDOF 2
ENDMDL
MODEL 7
REMARK VINA RESULT:      -4.1      2.047      2.886
REMARK  Name = 
REMARK  2 active torsions:
REMARK  status: ('A' for Active; 'I' for Inactive)
REMARK    1  A    between atoms: C_2  and  C_3
REMARK    2  A    between atoms: C_6  and  C_7
REMARK                            x       y       z     vdW  Elec       q    Type
REMARK                         _______ _______ _______ _____ _____    ______ ____
ROOT
ATOM      1  C   UNL     1      -9.946  12.554  66.706  0.00  0.00    +0.019 C 
ATOM      2  C   UNL     1     -10.180  13.940  65.876  0.00  0.00    +0.002 C 
ATOM      3  C   UNL     1     -11.379  14.610  66.434  0.00  0.00    +0.011 C 
ATOM      4  C   UNL     1     -12.686  14.017  65.642  0.00  0.00    +0.103 C 
ATOM      5  C   UNL     1     -12.066  12.508  65.484  0.00  0.00    +0.011 C 
ATOM      6  C   UNL     1     -11.540  12.256  66.896  0.00  0.00    +0.002 C 
ENDROOT
BRANCH   4   7
ATOM      7  C   UNL     1     -12.153  14.502  64.205  0.00  0.00    +0.364 C 
ATOM      8  O   UNL     1     -12.563  13.566  63.240  0.00  0.00    -0.246 OA
ATOM      9  O   UNL     1     -12.708  15.617  63.930  0.00  0.00    -0.246 OA
ENDBRANCH   4   7
BRANCH   1  11
ATOM     10  N   UNL     1      -8.423  13.493  68.274  0.00  0.00    -0.131 NA
ATOM     11  C   UNL     1      -9.843  13.358  68.124  0.00  0.00    +0.109 C 
ENDBRANCH   1  11
TORSDOF 2
ENDMDL
MODEL 8
REMARK VINA RESULT:      -4.1      5.428      6.519
REMARK  Name = 
REMARK  2 active torsions:
REMARK  status: ('A' for Active; 'I' for Inactive)
REMARK    1  A    between atoms: C_2  and  C_3
REMARK    2  A    between atoms: C_6  and  C_7
REMARK                            x       y       z     vdW  Elec       q    Type
REMARK                         _______ _______ _______ _____ _____    ______ ____
ROOT
ATOM      1  C   UNL     1     -11.867  15.498  69.341  0.00  0.00    +0.019 C 
ATOM      2  C   UNL     1     -11.638  16.256  70.768  0.00  0.00    +0.002 C 
ATOM      3  C   UNL     1     -11.196  15.244  71.757  0.00  0.00    +0.011 C 
ATOM      4  C   UNL     1     -12.543  14.587  72.423  0.00  0.00    +0.103 C 
ATOM      5  C   UNL     1     -13.422  14.674  71.043  0.00  0.00    +0.011 C 
ATOM      6  C   UNL     1     -12.427  14.124  70.023  0.00  0.00    +0.002 C 
ENDROOT
BRANCH   4   7
ATOM      7  C   UNL     1     -13.073  16.001  72.976  0.00  0.00    +0.364 C 
ATOM      8  O   UNL     1     -14.447  16.101  72.693  0.00  0.00    -0.246 OA
ATOM      9  O   UNL     1     -12.933  16.009  74.244  0.00  0.00    -0.246 OA
ENDBRANCH   4   7
BRANCH   1  11
ATOM     10  N   UNL     1      -9.695  15.927  68.472  0.00  0.00    -0.131 NA
ATOM     11  C   UNL     1     -10.327  14.957  69.320  0.00  0.00    +0.109 C 
ENDBRANCH   1  11
TORSDOF 2
ENDMDL
MODEL 9
REMARK VINA RESULT:      -4.0      2.351      2.945
REMARK  Name = 
REMARK  2 active torsions:
REMARK  status: ('A' for Active; 'I' for Inactive)
REMARK    1  A    between atoms: C_2  and  C_3
REMARK    2  A    between atoms: C_6  and  C_7
REMARK                            x       y       z     vdW  Elec       q    Type
REMARK                         _______ _______ _______ _____ _____    ______ ____
ROOT
ATOM      1  C   UNL     1     -10.568  13.392  67.628  0.00  0.00    +0.019 C 
ATOM      2  C   UNL     1     -11.714  12.582  66.794  0.00  0.00    +0.002 C 
ATOM      3  C   UNL     1     -11.034  11.743  65.780  0.00  0.00    +0.011 C 
ATOM      4  C   UNL     1     -10.831  12.662  64.437  0.00  0.00    +0.103 C 
ATOM      5  C   UNL     1     -10.582  14.051  65.270  0.00  0.00    +0.011 C 
ATOM      6  C   UNL     1      -9.590  13.583  66.334  0.00  0.00    +0.002 C 
ENDROOT
BRANCH   4   7
ATOM      7  C   UNL     1     -12.408  12.924  64.264  0.00  0.00    +0.364 C 
ATOM      8  O   UNL     1     -12.589  14.217  63.743  0.00  0.00    -0.246 OA
ATOM      9  O   UNL     1     -12.857  12.091  63.408  0.00  0.00    -0.246 OA
ENDBRANCH   4   7
BRANCH   1  11
ATOM     10  N   UNL     1      -8.472  12.423  68.198  0.00  0.00    -0.131 NA
ATOM     11  C   UNL     1      -9.838  12.003  68.078  0.00  0.00    +0.109 C 
ENDBRANCH   1  11
TORSDOF 2
ENDMDL
