MODEL 1
REMARK VINA RESULT:      -7.3      0.000      0.000
REMARK  Name = 
REMARK  3 active torsions:
REMARK  status: ('A' for Active; 'I' for Inactive)
REMARK    1  A    between atoms: C_2  and  O_3
REMARK    2  A    between atoms: C_2  and  C_16
REMARK    3  A    between atoms: O_3  and  C_4
REMARK                            x       y       z     vdW  Elec       q    Type
REMARK                         _______ _______ _______ _____ _____    ______ ____
ROOT
ATOM      1  O   UNL     1     -10.694  11.572  69.306  0.00  0.00    -0.449 OA
ENDROOT
BRANCH   1   2
ATOM      2  C   UNL     1     -10.939  10.213  69.525  0.00  0.00    +0.172 C 
ATOM      3  C   UNL     1      -9.585   9.711  70.029  0.00  0.00    +0.060 C 
ATOM      4  C   UNL     1      -9.648   8.077  70.261  0.00  0.00    +0.062 C 
ATOM      5  N   UNL     1     -11.203   8.098  70.349  0.00  0.00    -0.269 NA
ATOM      6  C   UNL     1     -11.032   9.233  71.444  0.00  0.00    +0.062 C 
ATOM      7  C   UNL     1     -11.924   8.395  72.508  0.00  0.00    +0.024 C 
ATOM      8  C   UNL     1     -10.639   7.513  72.628  0.00  0.00    +0.062 C 
ATOM      9  C   UNL     1     -11.097   6.305  71.853  0.00  0.00    +0.166 C 
ATOM     10  O   UNL     1     -11.847   5.561  72.486  0.00  0.00    -0.295 OA
ATOM     11  C   UNL     1     -11.758   6.946  70.663  0.00  0.00    +0.137 C 
ATOM     12  C   UNL     1      -9.431   8.025  71.897  0.00  0.00    +0.024 C 
ATOM     13  C   UNL     1     -12.083  10.124  70.582  0.00  0.00    +0.060 C 
ENDBRANCH   1   2
BRANCH   1  15
ATOM     14  O   UNL     1     -12.125  12.007  67.833  0.00  0.00    -0.245 OA
ATOM     15  C   UNL     1     -11.682  12.384  68.737  0.00  0.00    +0.343 C 
BRANCH  15  16
ATOM     16  C   UNL     1     -11.801  13.750  69.270  0.00  0.00    +0.096 A 
ATOM     17  C   UNL     1     -12.439  14.088  70.432  0.00  0.00    +0.025 A 
ATOM     18  C   UNL     1     -12.283  15.458  70.584  0.00  0.00    +0.082 A 
ATOM     19  C   UNL     1     -12.428  16.009  71.848  0.00  0.00    +0.019 A 
ATOM     20  C   UNL     1     -12.791  15.167  72.892  0.00  0.00    +0.002 A 
ATOM     21  C   UNL     1     -13.101  13.832  72.666  0.00  0.00    +0.000 A 
ATOM     22  N   UNL     1     -11.947  15.940  69.366  0.00  0.00    -0.244 NA
ATOM     23  C   UNL     1     -13.264  13.449  71.339  0.00  0.00    +0.002 A 
ATOM     24  C   UNL     1     -11.733  14.917  68.524  0.00  0.00    +0.105 A 
ENDBRANCH  15  16
ENDBRANCH   1  15
TORSDOF 3
ENDMDL
MODEL 2
REMARK VINA RESULT:      -7.3      3.967      8.467
REMARK  Name = 
REMARK  3 active torsions:
REMARK  status: ('A' for Active; 'I' for Inactive)
REMARK    1  A    between atoms: C_2  and  O_3
REMARK    2  A    between atoms: C_2  and  C_16
REMARK    3  A    between atoms: O_3  and  C_4
REMARK                            x       y       z     vdW  Elec       q    Type
REMARK                         _______ _______ _______ _____ _____    ______ ____
ROOT
ATOM      1  O   UNL     1     -11.133  15.218  68.141  0.00  0.00    -0.449 OA
ENDROOT
BRANCH   1   2
ATOM      2  C   UNL     1     -10.092  16.123  67.918  0.00  0.00    +0.172 C 
ATOM      3  C   UNL     1     -10.459  16.719  66.558  0.00  0.00    +0.060 C 
ATOM      4  C   UNL     1      -9.278  17.764  66.071  0.00  0.00    +0.062 C 
ATOM      5  N   UNL     1      -8.758  17.937  67.529  0.00  0.00    -0.269 NA
ATOM      6  C   UNL     1     -10.257  18.273  67.924  0.00  0.00    +0.062 C 
ATOM      7  C   UNL     1      -9.805  19.677  68.600  0.00  0.00    +0.024 C 
ATOM      8  C   UNL     1      -9.657  20.145  67.116  0.00  0.00    +0.062 C 
ATOM      9  C   UNL     1      -8.155  20.140  67.005  0.00  0.00    +0.166 C 
ATOM     10  O   UNL     1      -7.613  21.116  67.523  0.00  0.00    -0.295 OA
ATOM     11  C   UNL     1      -7.810  18.839  67.678  0.00  0.00    +0.137 C 
ATOM     12  C   UNL     1     -10.140  19.173  66.078  0.00  0.00    +0.024 C 
ATOM     13  C   UNL     1     -10.127  17.151  69.092  0.00  0.00    +0.060 C 
ENDBRANCH   1   2
BRANCH   1  15
ATOM     14  O   UNL     1     -10.166  13.359  68.008  0.00  0.00    -0.245 OA
ATOM     15  C   UNL     1     -10.857  13.926  68.605  0.00  0.00    +0.343 C 
BRANCH  15  16
ATOM     16  C   UNL     1     -11.729  13.406  69.669  0.00  0.00    +0.096 A 
ATOM     17  C   UNL     1     -12.026  14.062  70.833  0.00  0.00    +0.025 A 
ATOM     18  C   UNL     1     -12.906  13.247  71.531  0.00  0.00    +0.082 A 
ATOM     19  C   UNL     1     -13.710  13.818  72.507  0.00  0.00    +0.019 A 
ATOM     20  C   UNL     1     -13.544  15.168  72.785  0.00  0.00    +0.002 A 
ATOM     21  C   UNL     1     -12.536  15.910  72.181  0.00  0.00    +0.000 A 
ATOM     22  N   UNL     1     -12.784  12.010  70.998  0.00  0.00    -0.244 NA
ATOM     23  C   UNL     1     -11.570  15.192  71.485  0.00  0.00    +0.002 A 
ATOM     24  C   UNL     1     -12.000  12.068  69.911  0.00  0.00    +0.105 A 
ENDBRANCH  15  16
ENDBRANCH   1  15
TORSDOF 3
ENDMDL
MODEL 3
REMARK VINA RESULT:      -7.2      5.429      8.208
REMARK  Name = 
REMARK  3 active torsions:
REMARK  status: ('A' for Active; 'I' for Inactive)
REMARK    1  A    between atoms: C_2  and  O_3
REMARK    2  A    between atoms: C_2  and  C_16
REMARK    3  A    between atoms: O_3  and  C_4
REMARK                            x       y       z     vdW  Elec       q    Type
REMARK                         _______ _______ _______ _____ _____    ______ ____
ROOT
ATOM      1  O   UNL     1      -9.738  17.643  65.682  0.00  0.00    -0.449 OA
ENDROOT
BRANCH   1   2
ATOM      2  C   UNL     1     -10.492  16.547  66.113  0.00  0.00    +0.172 C 
ATOM      3  C   UNL     1     -10.887  15.879  64.795  0.00  0.00    +0.060 C 
ATOM      4  C   UNL     1     -11.877  14.593  65.097  0.00  0.00    +0.062 C 
ATOM      5  N   UNL     1     -11.383  14.493  66.571  0.00  0.00    -0.269 NA
ATOM      6  C   UNL     1      -9.912  14.475  65.978  0.00  0.00    +0.062 C 
ATOM      7  C   UNL     1      -9.570  13.097  66.763  0.00  0.00    +0.024 C 
ATOM      8  C   UNL     1     -10.466  12.448  65.658  0.00  0.00    +0.062 C 
ATOM      9  C   UNL     1     -11.703  12.175  66.474  0.00  0.00    +0.166 C 
ATOM     10  O   UNL     1     -11.615  11.181  67.195  0.00  0.00    -0.295 OA
ATOM     11  C   UNL     1     -11.844  13.460  67.244  0.00  0.00    +0.137 C 
ATOM     12  C   UNL     1     -10.908  13.370  64.558  0.00  0.00    +0.024 C 
ATOM     13  C   UNL     1      -9.556  15.679  67.010  0.00  0.00    +0.060 C 
ENDBRANCH   1   2
BRANCH   1  15
ATOM     14  O   UNL     1     -10.693  19.507  65.827  0.00  0.00    -0.245 OA
ATOM     15  C   UNL     1      -9.923  18.901  66.269  0.00  0.00    +0.343 C 
BRANCH  15  16
ATOM     16  C   UNL     1      -8.886  19.347  67.212  0.00  0.00    +0.096 A 
ATOM     17  C   UNL     1      -7.624  19.743  66.863  0.00  0.00    +0.025 A 
ATOM     18  C   UNL     1      -6.990  20.120  68.039  0.00  0.00    +0.082 A 
ATOM     19  C   UNL     1      -5.890  20.961  67.962  0.00  0.00    +0.019 A 
ATOM     20  C   UNL     1      -5.434  21.330  66.703  0.00  0.00    +0.002 A 
ATOM     21  C   UNL     1      -5.994  20.797  65.549  0.00  0.00    +0.000 A 
ATOM     22  N   UNL     1      -7.701  19.567  69.048  0.00  0.00    -0.244 NA
ATOM     23  C   UNL     1      -6.850  19.714  65.718  0.00  0.00    +0.002 A 
ATOM     24  C   UNL     1      -8.820  19.014  68.556  0.00  0.00    +0.105 A 
ENDBRANCH  15  16
ENDBRANCH   1  15
TORSDOF 3
ENDMDL
MODEL 4
REMARK VINA RESULT:      -7.2      5.318      9.017
REMARK  Name = 
REMARK  3 active torsions:
REMARK  status: ('A' for Active; 'I' for Inactive)
REMARK    1  A    between atoms: C_2  and  O_3
REMARK    2  A    between atoms: C_2  and  C_16
REMARK    3  A    between atoms: O_3  and  C_4
REMARK                            x       y       z     vdW  Elec       q    Type
REMARK                         _______ _______ _______ _____ _____    ______ ____
ROOT
ATOM      1  O   UNL     1     -11.755  15.236  67.884  0.00  0.00    -0.449 OA
ENDROOT
BRANCH   1   2
ATOM      2  C   UNL     1     -10.511  15.869  67.968  0.00  0.00    +0.172 C 
ATOM      3  C   UNL     1     -10.387  16.535  66.597  0.00  0.00    +0.060 C 
ATOM      4  C   UNL     1      -8.915  17.271  66.466  0.00  0.00    +0.062 C 
ATOM      5  N   UNL     1      -8.742  17.315  68.014  0.00  0.00    -0.269 NA
ATOM      6  C   UNL     1     -10.173  17.997  68.060  0.00  0.00    +0.062 C 
ATOM      7  C   UNL     1      -9.591  19.253  68.905  0.00  0.00    +0.024 C 
ATOM      8  C   UNL     1      -8.981  19.673  67.528  0.00  0.00    +0.062 C 
ATOM      9  C   UNL     1      -7.540  19.312  67.778  0.00  0.00    +0.166 C 
ATOM     10  O   UNL     1      -6.932  20.132  68.466  0.00  0.00    -0.295 OA
ATOM     11  C   UNL     1      -7.679  17.966  68.437  0.00  0.00    +0.137 C 
ATOM     12  C   UNL     1      -9.405  18.844  66.351  0.00  0.00    +0.024 C 
ATOM     13  C   UNL     1     -10.595  16.875  69.158  0.00  0.00    +0.060 C 
ENDBRANCH   1   2
BRANCH   1  15
ATOM     14  O   UNL     1     -11.573  13.253  68.549  0.00  0.00    -0.245 OA
ATOM     15  C   UNL     1     -11.829  13.851  67.693  0.00  0.00    +0.343 C 
BRANCH  15  16
ATOM     16  C   UNL     1     -11.973  13.383  66.306  0.00  0.00    +0.096 A 
ATOM     17  C   UNL     1     -11.046  12.641  65.627  0.00  0.00    +0.025 A 
ATOM     18  C   UNL     1     -11.588  12.381  64.376  0.00  0.00    +0.082 A 
ATOM     19  C   UNL     1     -11.094  11.310  63.646  0.00  0.00    +0.019 A 
ATOM     20  C   UNL     1     -10.030  10.592  64.175  0.00  0.00    +0.002 A 
ATOM     21  C   UNL     1      -9.407  10.988  65.352  0.00  0.00    +0.000 A 
ATOM     22  N   UNL     1     -12.582  13.281  64.198  0.00  0.00    -0.244 NA
ATOM     23  C   UNL     1      -9.735  12.251  65.832  0.00  0.00    +0.002 A 
ATOM     24  C   UNL     1     -12.776  13.964  65.336  0.00  0.00    +0.105 A 
ENDBRANCH  15  16
ENDBRANCH   1  15
TORSDOF 3
ENDMDL
MODEL 5
REMARK VINA RESULT:      -7.2      4.147      8.815
REMARK  Name = 
REMARK  3 active torsions:
REMARK  status: ('A' for Active; 'I' for Inactive)
REMARK    1  A    between atoms: C_2  and  O_3
REMARK    2  A    between atoms: C_2  and  C_16
REMARK    3  A    between atoms: O_3  and  C_4
REMARK                            x       y       z     vdW  Elec       q    Type
REMARK                         _______ _______ _______ _____ _____    ______ ____
ROOT
ATOM      1  O   UNL     1     -11.809  14.964  67.970  0.00  0.00    -0.449 OA
ENDROOT
BRANCH   1   2
ATOM      2  C   UNL     1     -10.583  15.633  68.028  0.00  0.00    +0.172 C 
ATOM      3  C   UNL     1     -10.468  16.229  66.623  0.00  0.00    +0.060 C 
ATOM      4  C   UNL     1      -9.014  16.996  66.462  0.00  0.00    +0.062 C 
ATOM      5  N   UNL     1      -8.853  17.126  68.006  0.00  0.00    -0.269 NA
ATOM      6  C   UNL     1     -10.302  17.771  68.009  0.00  0.00    +0.062 C 
ATOM      7  C   UNL     1      -9.759  19.084  68.790  0.00  0.00    +0.024 C 
ATOM      8  C   UNL     1      -9.150  19.448  67.396  0.00  0.00    +0.062 C 
ATOM      9  C   UNL     1      -7.702  19.138  67.672  0.00  0.00    +0.166 C 
ATOM     10  O   UNL     1      -7.120  20.009  68.319  0.00  0.00    -0.295 OA
ATOM     11  C   UNL     1      -7.810  17.826  68.400  0.00  0.00    +0.137 C 
ATOM     12  C   UNL     1      -9.544  18.547  66.262  0.00  0.00    +0.024 C 
ATOM     13  C   UNL     1     -10.702  16.698  69.162  0.00  0.00    +0.060 C 
ENDBRANCH   1   2
BRANCH   1  15
ATOM     14  O   UNL     1     -12.174  13.536  69.466  0.00  0.00    -0.245 OA
ATOM     15  C   UNL     1     -11.915  13.645  68.428  0.00  0.00    +0.343 C 
BRANCH  15  16
ATOM     16  C   UNL     1     -11.401  12.593  67.537  0.00  0.00    +0.096 A 
ATOM     17  C   UNL     1     -11.671  12.496  66.199  0.00  0.00    +0.025 A 
ATOM     18  C   UNL     1     -10.964  11.397  65.733  0.00  0.00    +0.082 A 
ATOM     19  C   UNL     1     -10.688  11.309  64.377  0.00  0.00    +0.019 A 
ATOM     20  C   UNL     1     -11.195  12.295  63.540  0.00  0.00    +0.002 A 
ATOM     21  C   UNL     1     -12.039  13.287  64.023  0.00  0.00    +0.000 A 
ATOM     22  N   UNL     1     -10.650  10.657  66.821  0.00  0.00    -0.244 NA
ATOM     23  C   UNL     1     -12.536  13.105  65.309  0.00  0.00    +0.002 A 
ATOM     24  C   UNL     1     -10.988  11.330  67.931  0.00  0.00    +0.105 A 
ENDBRANCH  15  16
ENDBRANCH   1  15
TORSDOF 3
ENDMDL
MODEL 6
REMARK VINA RESULT:      -6.9      3.070      7.259
REMARK  Name = 
REMARK  3 active torsions:
REMARK  status: ('A' for Active; 'I' for Inactive)
REMARK    1  A    between atoms: C_2  and  O_3
REMARK    2  A    between atoms: C_2  and  C_16
REMARK    3  A    between atoms: O_3  and  C_4
REMARK                            x       y       z     vdW  Elec       q    Type
REMARK                         _______ _______ _______ _____ _____    ______ ____
ROOT
ATOM      1  O   UNL     1     -10.828   9.845  67.346  0.00  0.00    -0.449 OA
ENDROOT
BRANCH   1   2
ATOM      2  C   UNL     1     -10.443  11.098  66.861  0.00  0.00    +0.172 C 
ATOM      3  C   UNL     1     -10.685  10.959  65.357  0.00  0.00    +0.060 C 
ATOM      4  C   UNL     1     -10.193  12.332  64.584  0.00  0.00    +0.062 C 
ATOM      5  N   UNL     1     -10.279  13.164  65.898  0.00  0.00    -0.269 NA
ATOM      6  C   UNL     1     -11.755  12.603  66.047  0.00  0.00    +0.062 C 
ATOM      7  C   UNL     1     -12.356  14.104  66.170  0.00  0.00    +0.024 C 
ATOM      8  C   UNL     1     -12.088  14.152  64.631  0.00  0.00    +0.062 C 
ATOM      9  C   UNL     1     -10.869  15.037  64.621  0.00  0.00    +0.166 C 
ATOM     10  O   UNL     1     -11.120  16.234  64.765  0.00  0.00    -0.295 OA
ATOM     11  C   UNL     1     -10.067  14.456  65.754  0.00  0.00    +0.137 C 
ATOM     12  C   UNL     1     -11.649  12.858  64.009  0.00  0.00    +0.024 C 
ATOM     13  C   UNL     1     -11.358  12.154  67.557  0.00  0.00    +0.060 C 
ENDBRANCH   1   2
BRANCH   1  15
ATOM     14  O   UNL     1      -8.975   9.014  67.879  0.00  0.00    -0.245 OA
ATOM     15  C   UNL     1      -9.989   9.136  68.214  0.00  0.00    +0.343 C 
BRANCH  15  16
ATOM     16  C   UNL     1     -10.640   8.419  69.322  0.00  0.00    +0.096 A 
ATOM     17  C   UNL     1     -11.332   9.012  70.342  0.00  0.00    +0.025 A 
ATOM     18  C   UNL     1     -11.814   7.984  71.141  0.00  0.00    +0.082 A 
ATOM     19  C   UNL     1     -12.893   8.238  71.974  0.00  0.00    +0.019 A 
ATOM     20  C   UNL     1     -13.396   9.532  72.019  0.00  0.00    +0.002 A 
ATOM     21  C   UNL     1     -12.780  10.569  71.330  0.00  0.00    +0.000 A 
ATOM     22  N   UNL     1     -11.080   6.890  70.837  0.00  0.00    -0.244 NA
ATOM     23  C   UNL     1     -11.521  10.302  70.803  0.00  0.00    +0.002 A 
ATOM     24  C   UNL     1     -10.293   7.159  69.784  0.00  0.00    +0.105 A 
ENDBRANCH  15  16
ENDBRANCH   1  15
TORSDOF 3
ENDMDL
MODEL 7
REMARK VINA RESULT:      -6.9      4.895      9.399
REMARK  Name = 
REMARK  3 active torsions:
REMARK  status: ('A' for Active; 'I' for Inactive)
REMARK    1  A    between atoms: C_2  and  O_3
REMARK    2  A    between atoms: C_2  and  C_16
REMARK    3  A    between atoms: O_3  and  C_4
REMARK                            x       y       z     vdW  Elec       q    Type
REMARK                         _______ _______ _______ _____ _____    ______ ____
ROOT
ATOM      1  O   UNL     1     -11.041  16.142  67.334  0.00  0.00    -0.449 OA
ENDROOT
BRANCH   1   2
ATOM      2  C   UNL     1      -9.962  16.865  67.851  0.00  0.00    +0.172 C 
ATOM      3  C   UNL     1      -8.844  16.542  66.858  0.00  0.00    +0.060 C 
ATOM      4  C   UNL     1      -7.435  17.243  67.359  0.00  0.00    +0.062 C 
ATOM      5  N   UNL     1      -8.202  18.265  68.251  0.00  0.00    -0.269 NA
ATOM      6  C   UNL     1      -9.058  18.607  66.960  0.00  0.00    +0.062 C 
ATOM      7  C   UNL     1      -8.705  20.185  67.096  0.00  0.00    +0.024 C 
ATOM      8  C   UNL     1      -7.307  19.742  66.556  0.00  0.00    +0.062 C 
ATOM      9  C   UNL     1      -6.511  19.831  67.831  0.00  0.00    +0.166 C 
ATOM     10  O   UNL     1      -6.192  20.980  68.141  0.00  0.00    -0.295 OA
ATOM     11  C   UNL     1      -7.448  19.186  68.816  0.00  0.00    +0.137 C 
ATOM     12  C   UNL     1      -7.205  18.309  66.119  0.00  0.00    +0.024 C 
ATOM     13  C   UNL     1     -10.387  18.366  67.863  0.00  0.00    +0.060 C 
ENDBRANCH   1   2
BRANCH   1  15
ATOM     14  O   UNL     1     -11.867  15.353  69.095  0.00  0.00    -0.245 OA
ATOM     15  C   UNL     1     -11.619  15.107  68.079  0.00  0.00    +0.343 C 
BRANCH  15  16
ATOM     16  C   UNL     1     -11.564  13.760  67.490  0.00  0.00    +0.096 A 
ATOM     17  C   UNL     1     -11.907  13.451  66.202  0.00  0.00    +0.025 A 
ATOM     18  C   UNL     1     -11.672  12.092  66.047  0.00  0.00    +0.082 A 
ATOM     19  C   UNL     1     -11.504  11.588  64.766  0.00  0.00    +0.019 A 
ATOM     20  C   UNL     1     -11.648  12.459  63.694  0.00  0.00    +0.002 A 
ATOM     21  C   UNL     1     -12.048  13.776  63.885  0.00  0.00    +0.000 A 
ATOM     22  N   UNL     1     -11.608  11.572  67.293  0.00  0.00    -0.244 NA
ATOM     23  C   UNL     1     -12.524  14.102  65.150  0.00  0.00    +0.002 A 
ATOM     24  C   UNL     1     -11.628  12.567  68.194  0.00  0.00    +0.105 A 
ENDBRANCH  15  16
ENDBRANCH   1  15
TORSDOF 3
ENDMDL
MODEL 8
REMARK VINA RESULT:      -6.8      2.661      4.558
REMARK  Name = 
REMARK  3 active torsions:
REMARK  status: ('A' for Active; 'I' for Inactive)
REMARK    1  A    between atoms: C_2  and  O_3
REMARK    2  A    between atoms: C_2  and  C_16
REMARK    3  A    between atoms: O_3  and  C_4
REMARK                            x       y       z     vdW  Elec       q    Type
REMARK                         _______ _______ _______ _____ _____    ______ ____
ROOT
ATOM      1  O   UNL     1     -12.122  11.219  68.735  0.00  0.00    -0.449 OA
ENDROOT
BRANCH   1   2
ATOM      2  C   UNL     1     -11.601  10.583  69.865  0.00  0.00    +0.172 C 
ATOM      3  C   UNL     1     -12.865  10.138  70.604  0.00  0.00    +0.060 C 
ATOM      4  C   UNL     1     -12.451   9.434  72.040  0.00  0.00    +0.062 C 
ATOM      5  N   UNL     1     -11.003   9.151  71.542  0.00  0.00    -0.269 NA
ATOM      6  C   UNL     1     -11.671   8.467  70.277  0.00  0.00    +0.062 C 
ATOM      7  C   UNL     1     -10.842   7.096  70.530  0.00  0.00    +0.024 C 
ATOM      8  C   UNL     1     -11.866   6.896  71.693  0.00  0.00    +0.062 C 
ATOM      9  C   UNL     1     -10.975   7.217  72.864  0.00  0.00    +0.166 C 
ATOM     10  O   UNL     1     -10.214   6.301  73.178  0.00  0.00    -0.295 OA
ATOM     11  C   UNL     1     -10.259   8.444  72.368  0.00  0.00    +0.137 C 
ATOM     12  C   UNL     1     -12.984   7.897  71.753  0.00  0.00    +0.024 C 
ATOM     13  C   UNL     1     -10.716   9.404  69.354  0.00  0.00    +0.060 C 
ENDBRANCH   1   2
BRANCH   1  15
ATOM     14  O   UNL     1     -11.320  13.117  69.136  0.00  0.00    -0.245 OA
ATOM     15  C   UNL     1     -11.627  12.467  68.337  0.00  0.00    +0.343 C 
BRANCH  15  16
ATOM     16  C   UNL     1     -11.839  12.843  66.931  0.00  0.00    +0.096 A 
ATOM     17  C   UNL     1     -11.159  12.318  65.866  0.00  0.00    +0.025 A 
ATOM     18  C   UNL     1     -11.689  12.910  64.729  0.00  0.00    +0.082 A 
ATOM     19  C   UNL     1     -11.522  12.274  63.508  0.00  0.00    +0.019 A 
ATOM     20  C   UNL     1     -10.770  11.107  63.474  0.00  0.00    +0.002 A 
ATOM     21  C   UNL     1     -10.116  10.638  64.607  0.00  0.00    +0.000 A 
ATOM     22  N   UNL     1     -12.335  14.023  65.145  0.00  0.00    -0.244 NA
ATOM     23  C   UNL     1     -10.053  11.507  65.690  0.00  0.00    +0.002 A 
ATOM     24  C   UNL     1     -12.363  14.047  66.486  0.00  0.00    +0.105 A 
ENDBRANCH  15  16
ENDBRANCH   1  15
TORSDOF 3
ENDMDL
MODEL 9
REMARK VINA RESULT:      -6.8      5.657      9.701
REMARK  Name = 
REMARK  3 active torsions:
REMARK  status: ('A' for Active; 'I' for Inactive)
REMARK    1  A    between atoms: C_2  and  O_3
REMARK    2  A    between atoms: C_2  and  C_16
REMARK    3  A    between atoms: O_3  and  C_4
REMARK                            x       y       z     vdW  Elec       q    Type
REMARK                         _______ _______ _______ _____ _____    ______ ____
ROOT
ATOM      1  O   UNL     1     -10.649  16.638  66.241  0.00  0.00    -0.449 OA
ENDROOT
BRANCH   1   2
ATOM      2  C   UNL     1      -9.780  17.732  66.189  0.00  0.00    +0.172 C 
ATOM      3  C   UNL     1     -10.201  18.545  67.415  0.00  0.00    +0.060 C 
ATOM      4  C   UNL     1      -9.335  19.949  67.476  0.00  0.00    +0.062 C 
ATOM      5  N   UNL     1      -8.222  19.363  66.557  0.00  0.00    -0.269 NA
ATOM      6  C   UNL     1      -8.167  18.138  67.562  0.00  0.00    +0.062 C 
ATOM      7  C   UNL     1      -6.572  18.334  67.776  0.00  0.00    +0.024 C 
ATOM      8  C   UNL     1      -7.013  19.557  68.643  0.00  0.00    +0.062 C 
ATOM      9  C   UNL     1      -6.651  20.673  67.698  0.00  0.00    +0.166 C 
ATOM     10  O   UNL     1      -5.448  20.935  67.674  0.00  0.00    -0.295 OA
ATOM     11  C   UNL     1      -7.171  20.138  66.391  0.00  0.00    +0.137 C 
ATOM     12  C   UNL     1      -8.491  19.690  68.872  0.00  0.00    +0.024 C 
ATOM     13  C   UNL     1      -8.330  17.162  66.273  0.00  0.00    +0.060 C 
ENDBRANCH   1   2
BRANCH   1  15
ATOM     14  O   UNL     1     -11.246  16.646  64.229  0.00  0.00    -0.245 OA
ATOM     15  C   UNL     1     -11.046  15.997  65.061  0.00  0.00    +0.343 C 
BRANCH  15  16
ATOM     16  C   UNL     1     -11.405  14.574  65.172  0.00  0.00    +0.096 A 
ATOM     17  C   UNL     1     -10.716  13.645  65.901  0.00  0.00    +0.025 A 
ATOM     18  C   UNL     1     -11.407  12.449  65.770  0.00  0.00    +0.082 A 
ATOM     19  C   UNL     1     -11.214  11.460  66.722  0.00  0.00    +0.019 A 
ATOM     20  C   UNL     1     -10.282  11.690  67.727  0.00  0.00    +0.002 A 
ATOM     21  C   UNL     1      -9.490  12.831  67.727  0.00  0.00    +0.000 A 
ATOM     22  N   UNL     1     -12.201  12.586  64.684  0.00  0.00    -0.244 NA
ATOM     23  C   UNL     1      -9.504  13.596  66.565  0.00  0.00    +0.002 A 
ATOM     24  C   UNL     1     -12.148  13.855  64.249  0.00  0.00    +0.105 A 
ENDBRANCH  15  16
ENDBRANCH   1  15
TORSDOF 3
ENDMDL
