MODEL 1
REMARK VINA RESULT:      -6.5      0.000      0.000
REMARK  Name = 
REMARK  3 active torsions:
REMARK  status: ('A' for Active; 'I' for Inactive)
REMARK    1  A    between atoms: N_4  and  N_5
REMARK    2  A    between atoms: C_6  and  C_7
REMARK    3  A    between atoms: C_10  and  N_11
REMARK                            x       y       z     vdW  Elec       q    Type
REMARK                         _______ _______ _______ _____ _____    ______ ____
ROOT
ATOM      1  N   UNL     1     -10.717  12.845  66.589  0.00  0.00    -0.169 NA
ATOM      2  C   UNL     1     -10.873  13.033  67.841  0.00  0.00    +0.155 C 
ENDROOT
BRANCH   1   8
ATOM      3  O   UNL     1     -11.267  16.871  64.482  0.00  0.00    -0.271 OA
ATOM      4  C   UNL     1     -11.336  15.614  64.338  0.00  0.00    +0.272 C 
ATOM      5  N   UNL     1     -12.500  14.813  64.133  0.00  0.00    -0.125 NA
ATOM      6  C   UNL     1     -12.325  13.561  64.805  0.00  0.00    +0.349 C 
ATOM      7  O   UNL     1     -13.186  12.644  64.939  0.00  0.00    -0.249 OA
ATOM      8  N   UNL     1     -11.229  13.796  65.697  0.00  0.00    -0.154 N 
ATOM      9  C   UNL     1     -10.342  14.685  64.952  0.00  0.00    +0.208 C 
ENDBRANCH   1   8
BRANCH   2  10
ATOM     10  C   UNL     1     -11.380  14.271  68.433  0.00  0.00    +0.172 A 
ATOM     11  O   UNL     1     -12.217  14.248  69.454  0.00  0.00    -0.397 OA
ATOM     12  C   UNL     1     -12.207  15.376  70.099  0.00  0.00    +0.447 A 
ATOM     13  C   UNL     1     -11.345  16.238  69.476  0.00  0.00    +0.121 A 
ATOM     14  C   UNL     1     -10.886  15.546  68.364  0.00  0.00    +0.049 A 
BRANCH  12  15
ATOM     15  N   UNL     1     -12.918  15.559  71.331  0.00  0.00    +0.119 N 
ATOM     16  O   UNL     1     -14.299  15.591  71.369  0.00  0.00    -0.573 OA
ATOM     17  O   UNL     1     -12.339  16.202  72.242  0.00  0.00    +0.045 OA
ENDBRANCH  12  15
ENDBRANCH   2  10
TORSDOF 3
ENDMDL
MODEL 2
REMARK VINA RESULT:      -6.1      2.927      3.272
REMARK  Name = 
REMARK  3 active torsions:
REMARK  status: ('A' for Active; 'I' for Inactive)
REMARK    1  A    between atoms: N_4  and  N_5
REMARK    2  A    between atoms: C_6  and  C_7
REMARK    3  A    between atoms: C_10  and  N_11
REMARK                            x       y       z     vdW  Elec       q    Type
REMARK                         _______ _______ _______ _____ _____    ______ ____
ROOT
ATOM      1  N   UNL     1      -9.390  12.920  66.540  0.00  0.00    -0.169 NA
ATOM      2  C   UNL     1      -8.988  13.608  67.537  0.00  0.00    +0.155 C 
ENDROOT
BRANCH   1   8
ATOM      3  O   UNL     1     -12.393  15.327  64.064  0.00  0.00    -0.271 OA
ATOM      4  C   UNL     1     -12.064  14.163  64.438  0.00  0.00    +0.272 C 
ATOM      5  N   UNL     1     -12.774  13.286  65.314  0.00  0.00    -0.125 NA
ATOM      6  C   UNL     1     -11.827  12.545  66.094  0.00  0.00    +0.349 C 
ATOM      7  O   UNL     1     -12.082  11.757  67.049  0.00  0.00    -0.249 OA
ATOM      8  N   UNL     1     -10.601  13.268  65.928  0.00  0.00    -0.154 N 
ATOM      9  C   UNL     1     -10.639  13.731  64.544  0.00  0.00    +0.208 C 
ENDBRANCH   1   8
BRANCH   2  10
ATOM     10  C   UNL     1      -9.601  14.862  67.975  0.00  0.00    +0.172 A 
ATOM     11  O   UNL     1      -9.422  15.982  67.300  0.00  0.00    -0.397 OA
ATOM     12  C   UNL     1     -10.354  16.848  67.567  0.00  0.00    +0.447 A 
ATOM     13  C   UNL     1     -11.204  16.316  68.498  0.00  0.00    +0.121 A 
ATOM     14  C   UNL     1     -10.663  15.077  68.813  0.00  0.00    +0.049 A 
BRANCH  12  15
ATOM     15  N   UNL     1     -10.471  18.088  66.856  0.00  0.00    +0.119 N 
ATOM     16  O   UNL     1     -11.065  19.196  67.433  0.00  0.00    -0.573 OA
ATOM     17  O   UNL     1     -10.537  18.033  65.603  0.00  0.00    +0.045 OA
ENDBRANCH  12  15
ENDBRANCH   2  10
TORSDOF 3
ENDMDL
MODEL 3
REMARK VINA RESULT:      -6.0      1.956      2.636
REMARK  Name = 
REMARK  3 active torsions:
REMARK  status: ('A' for Active; 'I' for Inactive)
REMARK    1  A    between atoms: N_4  and  N_5
REMARK    2  A    between atoms: C_6  and  C_7
REMARK    3  A    between atoms: C_10  and  N_11
REMARK                            x       y       z     vdW  Elec       q    Type
REMARK                         _______ _______ _______ _____ _____    ______ ____
ROOT
ATOM      1  N   UNL     1      -9.678  14.329  67.833  0.00  0.00    -0.169 NA
ATOM      2  C   UNL     1      -9.935  14.699  69.027  0.00  0.00    +0.155 C 
ENDROOT
BRANCH   1   8
ATOM      3  O   UNL     1     -13.402  14.011  65.192  0.00  0.00    -0.271 OA
ATOM      4  C   UNL     1     -12.293  13.470  65.481  0.00  0.00    +0.272 C 
ATOM      5  N   UNL     1     -12.066  12.216  66.125  0.00  0.00    -0.125 NA
ATOM      6  C   UNL     1     -10.907  12.327  66.959  0.00  0.00    +0.349 C 
ATOM      7  O   UNL     1     -10.464  11.460  67.765  0.00  0.00    -0.249 OA
ATOM      8  N   UNL     1     -10.699  13.741  67.077  0.00  0.00    -0.154 N 
ATOM      9  C   UNL     1     -11.066  14.269  65.766  0.00  0.00    +0.208 C 
ENDBRANCH   1   8
BRANCH   2  10
ATOM     10  C   UNL     1     -11.278  14.735  69.608  0.00  0.00    +0.172 A 
ATOM     11  O   UNL     1     -11.765  13.700  70.266  0.00  0.00    -0.397 OA
ATOM     12  C   UNL     1     -12.737  14.055  71.053  0.00  0.00    +0.447 A 
ATOM     13  C   UNL     1     -12.957  15.398  70.911  0.00  0.00    +0.121 A 
ATOM     14  C   UNL     1     -12.072  15.805  69.922  0.00  0.00    +0.049 A 
BRANCH  12  15
ATOM     15  N   UNL     1     -13.339  13.145  71.984  0.00  0.00    +0.119 N 
ATOM     16  O   UNL     1     -13.216  11.776  71.836  0.00  0.00    -0.573 OA
ATOM     17  O   UNL     1     -14.373  13.531  72.584  0.00  0.00    +0.045 OA
ENDBRANCH  12  15
ENDBRANCH   2  10
TORSDOF 3
ENDMDL
MODEL 4
REMARK VINA RESULT:      -5.9      2.092      5.278
REMARK  Name = 
REMARK  3 active torsions:
REMARK  status: ('A' for Active; 'I' for Inactive)
REMARK    1  A    between atoms: N_4  and  N_5
REMARK    2  A    between atoms: C_6  and  C_7
REMARK    3  A    between atoms: C_10  and  N_11
REMARK                            x       y       z     vdW  Elec       q    Type
REMARK                         _______ _______ _______ _____ _____    ______ ____
ROOT
ATOM      1  N   UNL     1      -8.798  15.992  67.402  0.00  0.00    -0.169 NA
ATOM      2  C   UNL     1      -8.797  15.833  66.136  0.00  0.00    +0.155 C 
ENDROOT
BRANCH   1   8
ATOM      3  O   UNL     1     -12.285  13.827  69.426  0.00  0.00    -0.271 OA
ATOM      4  C   UNL     1     -11.569  14.871  69.446  0.00  0.00    +0.272 C 
ATOM      5  N   UNL     1     -11.959  16.212  69.147  0.00  0.00    -0.125 NA
ATOM      6  C   UNL     1     -10.867  16.879  68.503  0.00  0.00    +0.349 C 
ATOM      7  O   UNL     1     -10.877  18.037  67.995  0.00  0.00    -0.249 OA
ATOM      8  N   UNL     1      -9.997  15.813  68.102  0.00  0.00    -0.154 N 
ATOM      9  C   UNL     1     -10.100  14.838  69.184  0.00  0.00    +0.208 C 
ENDBRANCH   1   8
BRANCH   2  10
ATOM     10  C   UNL     1      -9.918  15.284  65.373  0.00  0.00    +0.172 A 
ATOM     11  O   UNL     1     -10.270  14.018  65.491  0.00  0.00    -0.397 OA
ATOM     12  C   UNL     1     -11.496  13.829  65.103  0.00  0.00    +0.447 A 
ATOM     13  C   UNL     1     -12.011  15.018  64.663  0.00  0.00    +0.121 A 
ATOM     14  C   UNL     1     -10.965  15.924  64.763  0.00  0.00    +0.049 A 
BRANCH  12  15
ATOM     15  N   UNL     1     -12.165  12.571  65.266  0.00  0.00    +0.119 N 
ATOM     16  O   UNL     1     -13.265  12.235  64.500  0.00  0.00    -0.573 OA
ATOM     17  O   UNL     1     -12.113  12.031  66.399  0.00  0.00    +0.045 OA
ENDBRANCH  12  15
ENDBRANCH   2  10
TORSDOF 3
ENDMDL
MODEL 5
REMARK VINA RESULT:      -5.9      3.197      5.404
REMARK  Name = 
REMARK  3 active torsions:
REMARK  status: ('A' for Active; 'I' for Inactive)
REMARK    1  A    between atoms: N_4  and  N_5
REMARK    2  A    between atoms: C_6  and  C_7
REMARK    3  A    between atoms: C_10  and  N_11
REMARK                            x       y       z     vdW  Elec       q    Type
REMARK                         _______ _______ _______ _____ _____    ______ ____
ROOT
ATOM      1  N   UNL     1     -10.228  17.340  69.019  0.00  0.00    -0.169 NA
ATOM      2  C   UNL     1     -10.345  16.070  68.964  0.00  0.00    +0.155 C 
ENDROOT
BRANCH   1   8
ATOM      3  O   UNL     1     -10.936  19.600  65.103  0.00  0.00    -0.271 OA
ATOM      4  C   UNL     1     -10.163  19.480  66.098  0.00  0.00    +0.272 C 
ATOM      5  N   UNL     1      -8.823  18.986  66.119  0.00  0.00    -0.125 NA
ATOM      6  C   UNL     1      -8.613  18.270  67.342  0.00  0.00    +0.349 C 
ATOM      7  O   UNL     1      -7.590  17.600  67.665  0.00  0.00    -0.249 OA
ATOM      8  N   UNL     1      -9.937  18.040  67.841  0.00  0.00    -0.154 N 
ATOM      9  C   UNL     1     -10.673  19.249  67.482  0.00  0.00    +0.208 C 
ENDBRANCH   1   8
BRANCH   2  10
ATOM     10  C   UNL     1     -10.392  15.299  67.722  0.00  0.00    +0.172 A 
ATOM     11  O   UNL     1     -11.280  15.569  66.783  0.00  0.00    -0.397 OA
ATOM     12  C   UNL     1     -10.903  15.105  65.629  0.00  0.00    +0.447 A 
ATOM     13  C   UNL     1      -9.710  14.450  65.780  0.00  0.00    +0.121 A 
ATOM     14  C   UNL     1      -9.436  14.510  67.139  0.00  0.00    +0.049 A 
BRANCH  12  15
ATOM     15  N   UNL     1     -11.618  15.391  64.419  0.00  0.00    +0.119 N 
ATOM     16  O   UNL     1     -11.645  16.664  63.882  0.00  0.00    -0.573 OA
ATOM     17  O   UNL     1     -12.613  14.671  64.151  0.00  0.00    +0.045 OA
ENDBRANCH  12  15
ENDBRANCH   2  10
TORSDOF 3
ENDMDL
MODEL 6
REMARK VINA RESULT:      -5.8      3.085      3.903
REMARK  Name = 
REMARK  3 active torsions:
REMARK  status: ('A' for Active; 'I' for Inactive)
REMARK    1  A    between atoms: N_4  and  N_5
REMARK    2  A    between atoms: C_6  and  C_7
REMARK    3  A    between atoms: C_10  and  N_11
REMARK                            x       y       z     vdW  Elec       q    Type
REMARK                         _______ _______ _______ _____ _____    ______ ____
ROOT
ATOM      1  N   UNL     1     -11.265  12.424  66.978  0.00  0.00    -0.169 NA
ATOM      2  C   UNL     1     -10.885  13.493  67.562  0.00  0.00    +0.155 C 
ENDROOT
BRANCH   1   8
ATOM      3  O   UNL     1      -9.553  11.811  62.778  0.00  0.00    -0.271 OA
ATOM      4  C   UNL     1     -10.603  11.744  63.483  0.00  0.00    +0.272 C 
ATOM      5  N   UNL     1     -11.775  12.556  63.399  0.00  0.00    -0.125 NA
ATOM      6  C   UNL     1     -12.297  12.753  64.718  0.00  0.00    +0.349 C 
ATOM      7  O   UNL     1     -13.258  13.504  65.050  0.00  0.00    -0.249 OA
ATOM      8  N   UNL     1     -11.218  12.369  65.579  0.00  0.00    -0.154 N 
ATOM      9  C   UNL     1     -10.589  11.246  64.890  0.00  0.00    +0.208 C 
ENDBRANCH   1   8
BRANCH   2  10
ATOM     10  C   UNL     1     -10.216  14.607  66.891  0.00  0.00    +0.172 A 
ATOM     11  O   UNL     1     -10.843  15.747  66.669  0.00  0.00    -0.397 OA
ATOM     12  C   UNL     1     -10.002  16.720  66.479  0.00  0.00    +0.447 A 
ATOM     13  C   UNL     1      -8.727  16.225  66.539  0.00  0.00    +0.121 A 
ATOM     14  C   UNL     1      -8.880  14.858  66.720  0.00  0.00    +0.049 A 
BRANCH  12  15
ATOM     15  N   UNL     1     -10.425  18.085  66.362  0.00  0.00    +0.119 N 
ATOM     16  O   UNL     1     -10.935  18.777  67.444  0.00  0.00    -0.573 OA
ATOM     17  O   UNL     1     -10.830  18.471  65.237  0.00  0.00    +0.045 OA
ENDBRANCH  12  15
ENDBRANCH   2  10
TORSDOF 3
ENDMDL
MODEL 7
REMARK VINA RESULT:      -5.7      2.955      5.101
REMARK  Name = 
REMARK  3 active torsions:
REMARK  status: ('A' for Active; 'I' for Inactive)
REMARK    1  A    between atoms: N_4  and  N_5
REMARK    2  A    between atoms: C_6  and  C_7
REMARK    3  A    between atoms: C_10  and  N_11
REMARK                            x       y       z     vdW  Elec       q    Type
REMARK                         _______ _______ _______ _____ _____    ______ ____
ROOT
ATOM      1  N   UNL     1     -11.072  14.075  68.883  0.00  0.00    -0.169 NA
ATOM      2  C   UNL     1     -11.529  12.900  68.680  0.00  0.00    +0.155 C 
ENDROOT
BRANCH   1   8
ATOM      3  O   UNL     1     -10.343  16.457  65.044  0.00  0.00    -0.271 OA
ATOM      4  C   UNL     1      -9.878  16.179  66.189  0.00  0.00    +0.272 C 
ATOM      5  N   UNL     1      -8.705  15.429  66.505  0.00  0.00    -0.125 NA
ATOM      6  C   UNL     1      -8.946  14.677  67.701  0.00  0.00    +0.349 C 
ATOM      7  O   UNL     1      -8.182  13.815  68.223  0.00  0.00    -0.249 OA
ATOM      8  N   UNL     1     -10.371  14.711  67.851  0.00  0.00    -0.154 N 
ATOM      9  C   UNL     1     -10.750  16.044  67.393  0.00  0.00    +0.208 C 
ENDBRANCH   1   8
BRANCH   2  10
ATOM     10  C   UNL     1     -11.546  12.235  67.377  0.00  0.00    +0.172 A 
ATOM     11  O   UNL     1     -12.248  12.721  66.371  0.00  0.00    -0.397 OA
ATOM     12  C   UNL     1     -11.811  12.277  65.231  0.00  0.00    +0.447 A 
ATOM     13  C   UNL     1     -10.773  11.413  65.458  0.00  0.00    +0.121 A 
ATOM     14  C   UNL     1     -10.669  11.331  66.839  0.00  0.00    +0.049 A 
BRANCH  12  15
ATOM     15  N   UNL     1     -12.308  12.765  63.978  0.00  0.00    +0.119 N 
ATOM     16  O   UNL     1     -12.604  14.103  63.792  0.00  0.00    -0.573 OA
ATOM     17  O   UNL     1     -12.961  11.965  63.262  0.00  0.00    +0.045 OA
ENDBRANCH  12  15
ENDBRANCH   2  10
TORSDOF 3
ENDMDL
MODEL 8
REMARK VINA RESULT:      -5.7      3.185      4.867
REMARK  Name = 
REMARK  3 active torsions:
REMARK  status: ('A' for Active; 'I' for Inactive)
REMARK    1  A    between atoms: N_4  and  N_5
REMARK    2  A    between atoms: C_6  and  C_7
REMARK    3  A    between atoms: C_10  and  N_11
REMARK                            x       y       z     vdW  Elec       q    Type
REMARK                         _______ _______ _______ _____ _____    ______ ____
ROOT
ATOM      1  N   UNL     1      -8.042  16.402  68.545  0.00  0.00    -0.169 NA
ATOM      2  C   UNL     1      -8.629  15.287  68.749  0.00  0.00    +0.155 C 
ENDROOT
BRANCH   1   8
ATOM      3  O   UNL     1     -11.252  19.470  67.438  0.00  0.00    -0.271 OA
ATOM      4  C   UNL     1     -10.023  19.183  67.339  0.00  0.00    +0.272 C 
ATOM      5  N   UNL     1      -9.293  18.822  66.166  0.00  0.00    -0.125 NA
ATOM      6  C   UNL     1      -8.299  17.853  66.519  0.00  0.00    +0.349 C 
ATOM      7  O   UNL     1      -7.540  17.221  65.729  0.00  0.00    -0.249 OA
ATOM      8  N   UNL     1      -8.710  17.390  67.811  0.00  0.00    -0.154 N 
ATOM      9  C   UNL     1      -9.251  18.577  68.465  0.00  0.00    +0.208 C 
ENDBRANCH   1   8
BRANCH   2  10
ATOM     10  C   UNL     1     -10.035  15.027  68.438  0.00  0.00    +0.172 A 
ATOM     11  O   UNL     1     -10.407  14.633  67.235  0.00  0.00    -0.397 OA
ATOM     12  C   UNL     1     -11.568  14.049  67.267  0.00  0.00    +0.447 A 
ATOM     13  C   UNL     1     -12.041  14.067  68.551  0.00  0.00    +0.121 A 
ATOM     14  C   UNL     1     -11.088  14.769  69.276  0.00  0.00    +0.049 A 
BRANCH  12  15
ATOM     15  N   UNL     1     -12.131  13.402  66.117  0.00  0.00    +0.119 N 
ATOM     16  O   UNL     1     -13.080  14.028  65.330  0.00  0.00    -0.573 OA
ATOM     17  O   UNL     1     -12.181  12.147  66.127  0.00  0.00    +0.045 OA
ENDBRANCH  12  15
ENDBRANCH   2  10
TORSDOF 3
ENDMDL
MODEL 9
REMARK VINA RESULT:      -5.5      3.755      5.742
REMARK  Name = 
REMARK  3 active torsions:
REMARK  status: ('A' for Active; 'I' for Inactive)
REMARK    1  A    between atoms: N_4  and  N_5
REMARK    2  A    between atoms: C_6  and  C_7
REMARK    3  A    between atoms: C_10  and  N_11
REMARK                            x       y       z     vdW  Elec       q    Type
REMARK                         _______ _______ _______ _____ _____    ______ ____
ROOT
ATOM      1  N   UNL     1     -10.038  10.272  65.173  0.00  0.00    -0.169 NA
ATOM      2  C   UNL     1     -10.495  11.214  64.444  0.00  0.00    +0.155 C 
ENDROOT
BRANCH   1   8
ATOM      3  O   UNL     1     -11.452  10.587  69.515  0.00  0.00    -0.271 OA
ATOM      4  C   UNL     1     -10.475  10.282  68.768  0.00  0.00    +0.272 C 
ATOM      5  N   UNL     1      -9.226  10.960  68.631  0.00  0.00    -0.125 NA
ATOM      6  C   UNL     1      -8.796  10.867  67.267  0.00  0.00    +0.349 C 
ATOM      7  O   UNL     1      -7.796  11.438  66.745  0.00  0.00    -0.249 OA
ATOM      8  N   UNL     1      -9.975  10.464  66.559  0.00  0.00    -0.154 N 
ATOM      9  C   UNL     1     -10.654   9.554  67.477  0.00  0.00    +0.208 C 
ENDBRANCH   1   8
BRANCH   2  10
ATOM     10  C   UNL     1     -11.145  12.417  64.963  0.00  0.00    +0.172 A 
ATOM     11  O   UNL     1     -10.496  13.564  65.045  0.00  0.00    -0.397 OA
ATOM     12  C   UNL     1     -11.317  14.569  65.102  0.00  0.00    +0.447 A 
ATOM     13  C   UNL     1     -12.602  14.096  65.092  0.00  0.00    +0.121 A 
ATOM     14  C   UNL     1     -12.477  12.714  65.087  0.00  0.00    +0.049 A 
BRANCH  12  15
ATOM     15  N   UNL     1     -10.866  15.929  65.049  0.00  0.00    +0.119 N 
ATOM     16  O   UNL     1     -11.378  16.823  64.128  0.00  0.00    -0.573 OA
ATOM     17  O   UNL     1      -9.694  16.165  65.435  0.00  0.00    +0.045 OA
ENDBRANCH  12  15
ENDBRANCH   2  10
TORSDOF 3
ENDMDL
