MODEL 1
REMARK VINA RESULT:      -5.6      0.000      0.000
REMARK  Name = 
REMARK  14 active torsions:
REMARK  status: ('A' for Active; 'I' for Inactive)
REMARK    1  A    between atoms: C_2  and  C_3
REMARK    2  A    between atoms: C_4  and  C_5
REMARK    3  A    between atoms: C_5  and  C_6
REMARK    4  A    between atoms: C_7  and  C_8
REMARK    5  A    between atoms: C_8  and  C_9
REMARK    6  A    between atoms: C_10  and  C_11
REMARK    7  A    between atoms: C_11  and  C_12
REMARK    8  A    between atoms: C_13  and  C_14
REMARK    9  A    between atoms: C_14  and  C_15
REMARK   10  A    between atoms: C_16  and  C_17
REMARK   11  A    between atoms: C_17  and  C_18
REMARK   12  A    between atoms: C_19  and  C_20
REMARK   13  A    between atoms: C_20  and  C_21
REMARK   14  A    between atoms: C_21  and  C_22
REMARK                            x       y       z     vdW  Elec       q    Type
REMARK                         _______ _______ _______ _____ _____    ______ ____
ROOT
ATOM      1  C   UNL     1     -10.822  11.080  64.056  0.00  0.00    -0.026 C 
ATOM      2  C   UNL     1     -11.503  12.219  63.981  0.00  0.00    -0.026 C 
ENDROOT
BRANCH   1   3
ATOM      3  C   UNL     1      -9.891  10.945  65.217  0.00  0.00    +0.051 C 
BRANCH   3   5
ATOM      4  C   UNL     1     -10.556   9.172  66.758  0.00  0.00    -0.026 C 
ATOM      5  C   UNL     1      -9.885   9.523  65.668  0.00  0.00    -0.026 C 
BRANCH   4   6
ATOM      6  C   UNL     1     -11.041  10.193  67.741  0.00  0.00    +0.051 C 
BRANCH   6   8
ATOM      7  C   UNL     1     -10.874  10.168  70.210  0.00  0.00    -0.026 C 
ATOM      8  C   UNL     1     -10.293  10.022  69.020  0.00  0.00    -0.026 C 
BRANCH   7   9
ATOM      9  C   UNL     1     -12.332  10.517  70.185  0.00  0.00    +0.051 C 
BRANCH   9  11
ATOM     10  C   UNL     1     -13.328   9.619  72.179  0.00  0.00    -0.030 C 
ATOM     11  C   UNL     1     -12.882  10.698  71.544  0.00  0.00    -0.026 C 
BRANCH  10  13
ATOM     12  C   UNL     1     -13.330   7.214  71.520  0.00  0.00    +0.005 C 
ATOM     13  C   UNL     1     -14.033   8.555  71.412  0.00  0.00    +0.026 C 
ENDBRANCH  10  13
ENDBRANCH   9  11
ENDBRANCH   7   9
ENDBRANCH   6   8
ENDBRANCH   4   6
ENDBRANCH   3   5
ENDBRANCH   1   3
BRANCH   2  14
ATOM     14  C   UNL     1     -12.171  12.705  65.201  0.00  0.00    +0.051 C 
BRANCH  14  15
ATOM     15  C   UNL     1     -11.990  14.157  65.441  0.00  0.00    -0.026 C 
ATOM     16  C   UNL     1     -11.596  14.554  66.656  0.00  0.00    -0.026 C 
BRANCH  16  17
ATOM     17  C   UNL     1     -12.079  13.763  67.834  0.00  0.00    +0.051 C 
BRANCH  17  18
ATOM     18  C   UNL     1     -11.104  13.779  68.941  0.00  0.00    -0.026 C 
ATOM     19  C   UNL     1     -11.562  14.146  70.143  0.00  0.00    -0.030 C 
BRANCH  19  20
ATOM     20  C   UNL     1     -12.532  15.282  70.236  0.00  0.00    +0.038 C 
BRANCH  20  21
ATOM     21  C   UNL     1     -12.655  15.653  71.701  0.00  0.00    +0.119 C 
BRANCH  21  22
ATOM     22  C   UNL     1     -13.982  15.132  72.155  0.00  0.00    +0.365 C 
ATOM     23  O   UNL     1     -13.957  13.852  72.716  0.00  0.00    -0.246 OA
ATOM     24  O   UNL     1     -14.973  15.506  71.460  0.00  0.00    -0.246 OA
ENDBRANCH  21  22
ENDBRANCH  20  21
ENDBRANCH  19  20
ENDBRANCH  17  18
ENDBRANCH  16  17
ENDBRANCH  14  15
ENDBRANCH   2  14
TORSDOF 14
ENDMDL
MODEL 2
REMARK VINA RESULT:      -5.5      2.296      5.788
REMARK  Name = 
REMARK  14 active torsions:
REMARK  status: ('A' for Active; 'I' for Inactive)
REMARK    1  A    between atoms: C_2  and  C_3
REMARK    2  A    between atoms: C_4  and  C_5
REMARK    3  A    between atoms: C_5  and  C_6
REMARK    4  A    between atoms: C_7  and  C_8
REMARK    5  A    between atoms: C_8  and  C_9
REMARK    6  A    between atoms: C_10  and  C_11
REMARK    7  A    between atoms: C_11  and  C_12
REMARK    8  A    between atoms: C_13  and  C_14
REMARK    9  A    between atoms: C_14  and  C_15
REMARK   10  A    between atoms: C_16  and  C_17
REMARK   11  A    between atoms: C_17  and  C_18
REMARK   12  A    between atoms: C_19  and  C_20
REMARK   13  A    between atoms: C_20  and  C_21
REMARK   14  A    between atoms: C_21  and  C_22
REMARK                            x       y       z     vdW  Elec       q    Type
REMARK                         _______ _______ _______ _____ _____    ______ ____
ROOT
ATOM      1  C   UNL     1     -10.440  10.048  70.060  0.00  0.00    -0.026 C 
ATOM      2  C   UNL     1     -11.561   9.784  70.722  0.00  0.00    -0.026 C 
ENDROOT
BRANCH   1   3
ATOM      3  C   UNL     1     -10.598  10.418  68.621  0.00  0.00    +0.051 C 
BRANCH   3   5
ATOM      4  C   UNL     1     -10.437  12.764  67.966  0.00  0.00    -0.026 C 
ATOM      5  C   UNL     1      -9.814  11.658  68.352  0.00  0.00    -0.026 C 
BRANCH   4   6
ATOM      6  C   UNL     1     -11.848  12.731  67.464  0.00  0.00    +0.051 C 
BRANCH   6   8
ATOM      7  C   UNL     1     -12.409  13.937  65.377  0.00  0.00    -0.026 C 
ATOM      8  C   UNL     1     -12.106  13.970  66.674  0.00  0.00    -0.026 C 
BRANCH   7   9
ATOM      9  C   UNL     1     -12.475  12.573  64.757  0.00  0.00    +0.051 C 
BRANCH   9  11
ATOM     10  C   UNL     1     -10.826  11.316  63.543  0.00  0.00    -0.030 C 
ATOM     11  C   UNL     1     -11.539  12.435  63.623  0.00  0.00    -0.026 C 
BRANCH  10  13
ATOM     12  C   UNL     1      -8.844  10.325  64.686  0.00  0.00    +0.005 C 
ATOM     13  C   UNL     1     -10.316  10.680  64.789  0.00  0.00    +0.026 C 
ENDBRANCH  10  13
ENDBRANCH   9  11
ENDBRANCH   7   9
ENDBRANCH   6   8
ENDBRANCH   4   6
ENDBRANCH   3   5
ENDBRANCH   1   3
BRANCH   2  14
ATOM     14  C   UNL     1     -12.684  10.727  70.581  0.00  0.00    +0.051 C 
BRANCH  14  15
ATOM     15  C   UNL     1     -13.105  11.347  71.861  0.00  0.00    -0.026 C 
ATOM     16  C   UNL     1     -13.337  12.664  71.881  0.00  0.00    -0.026 C 
BRANCH  16  17
ATOM     17  C   UNL     1     -12.493  13.529  70.994  0.00  0.00    +0.051 C 
BRANCH  17  18
ATOM     18  C   UNL     1     -11.962  14.701  71.717  0.00  0.00    -0.026 C 
ATOM     19  C   UNL     1     -12.067  15.885  71.105  0.00  0.00    -0.030 C 
BRANCH  19  20
ATOM     20  C   UNL     1     -11.804  15.970  69.634  0.00  0.00    +0.038 C 
BRANCH  20  21
ATOM     21  C   UNL     1     -10.307  16.115  69.448  0.00  0.00    +0.119 C 
BRANCH  21  22
ATOM     22  C   UNL     1     -10.115  16.915  68.199  0.00  0.00    +0.365 C 
ATOM     23  O   UNL     1      -8.786  17.094  67.805  0.00  0.00    -0.246 OA
ATOM     24  O   UNL     1     -10.965  17.837  68.016  0.00  0.00    -0.246 OA
ENDBRANCH  21  22
ENDBRANCH  20  21
ENDBRANCH  19  20
ENDBRANCH  17  18
ENDBRANCH  16  17
ENDBRANCH  14  15
ENDBRANCH   2  14
TORSDOF 14
ENDMDL
MODEL 3
REMARK VINA RESULT:      -5.4      3.313      6.654
REMARK  Name = 
REMARK  14 active torsions:
REMARK  status: ('A' for Active; 'I' for Inactive)
REMARK    1  A    between atoms: C_2  and  C_3
REMARK    2  A    between atoms: C_4  and  C_5
REMARK    3  A    between atoms: C_5  and  C_6
REMARK    4  A    between atoms: C_7  and  C_8
REMARK    5  A    between atoms: C_8  and  C_9
REMARK    6  A    between atoms: C_10  and  C_11
REMARK    7  A    between atoms: C_11  and  C_12
REMARK    8  A    between atoms: C_13  and  C_14
REMARK    9  A    between atoms: C_14  and  C_15
REMARK   10  A    between atoms: C_16  and  C_17
REMARK   11  A    between atoms: C_17  and  C_18
REMARK   12  A    between atoms: C_19  and  C_20
REMARK   13  A    between atoms: C_20  and  C_21
REMARK   14  A    between atoms: C_21  and  C_22
REMARK                            x       y       z     vdW  Elec       q    Type
REMARK                         _______ _______ _______ _____ _____    ______ ____
ROOT
ATOM      1  C   UNL     1     -11.092  14.245  64.321  0.00  0.00    -0.026 C 
ATOM      2  C   UNL     1     -12.199  13.598  64.671  0.00  0.00    -0.026 C 
ENDROOT
BRANCH   1   3
ATOM      3  C   UNL     1     -10.817  15.520  65.051  0.00  0.00    +0.051 C 
BRANCH   3   5
ATOM      4  C   UNL     1      -9.569  15.713  67.139  0.00  0.00    -0.026 C 
ATOM      5  C   UNL     1      -9.577  15.355  65.862  0.00  0.00    -0.026 C 
BRANCH   4   6
ATOM      6  C   UNL     1     -10.643  16.584  67.714  0.00  0.00    +0.051 C 
BRANCH   6   8
ATOM      7  C   UNL     1      -9.663  18.594  68.774  0.00  0.00    -0.026 C 
ATOM      8  C   UNL     1     -10.083  17.334  68.876  0.00  0.00    -0.026 C 
BRANCH   7   9
ATOM      9  C   UNL     1      -9.787  19.215  67.415  0.00  0.00    +0.051 C 
BRANCH   9  11
ATOM     10  C   UNL     1      -7.775  19.749  66.214  0.00  0.00    -0.030 C 
ATOM     11  C   UNL     1      -8.667  20.133  67.122  0.00  0.00    -0.026 C 
BRANCH  10  13
ATOM     12  C   UNL     1      -6.273  17.975  67.115  0.00  0.00    +0.005 C 
ATOM     13  C   UNL     1      -7.379  18.316  66.133  0.00  0.00    +0.026 C 
ENDBRANCH  10  13
ENDBRANCH   9  11
ENDBRANCH   7   9
ENDBRANCH   6   8
ENDBRANCH   4   6
ENDBRANCH   3   5
ENDBRANCH   1   3
BRANCH   2  14
ATOM     14  C   UNL     1     -12.459  13.404  66.108  0.00  0.00    +0.051 C 
BRANCH  14  15
ATOM     15  C   UNL     1     -11.633  12.338  66.724  0.00  0.00    -0.026 C 
ATOM     16  C   UNL     1     -11.690  12.178  68.051  0.00  0.00    -0.026 C 
BRANCH  16  17
ATOM     17  C   UNL     1     -11.884  13.407  68.888  0.00  0.00    +0.051 C 
BRANCH  17  18
ATOM     18  C   UNL     1     -12.027  13.077  70.319  0.00  0.00    -0.026 C 
ATOM     19  C   UNL     1     -12.722  13.938  71.070  0.00  0.00    -0.030 C 
BRANCH  19  20
ATOM     20  C   UNL     1     -12.539  15.407  70.851  0.00  0.00    +0.038 C 
BRANCH  20  21
ATOM     21  C   UNL     1     -11.982  15.991  72.135  0.00  0.00    +0.119 C 
BRANCH  21  22
ATOM     22  C   UNL     1     -13.089  15.925  73.140  0.00  0.00    +0.365 C 
ATOM     23  O   UNL     1     -14.373  16.120  72.624  0.00  0.00    -0.246 OA
ATOM     24  O   UNL     1     -12.792  16.354  74.294  0.00  0.00    -0.246 OA
ENDBRANCH  21  22
ENDBRANCH  20  21
ENDBRANCH  19  20
ENDBRANCH  17  18
ENDBRANCH  16  17
ENDBRANCH  14  15
ENDBRANCH   2  14
TORSDOF 14
ENDMDL
MODEL 4
REMARK VINA RESULT:      -5.3      2.020      4.476
REMARK  Name = 
REMARK  14 active torsions:
REMARK  status: ('A' for Active; 'I' for Inactive)
REMARK    1  A    between atoms: C_2  and  C_3
REMARK    2  A    between atoms: C_4  and  C_5
REMARK    3  A    between atoms: C_5  and  C_6
REMARK    4  A    between atoms: C_7  and  C_8
REMARK    5  A    between atoms: C_8  and  C_9
REMARK    6  A    between atoms: C_10  and  C_11
REMARK    7  A    between atoms: C_11  and  C_12
REMARK    8  A    between atoms: C_13  and  C_14
REMARK    9  A    between atoms: C_14  and  C_15
REMARK   10  A    between atoms: C_16  and  C_17
REMARK   11  A    between atoms: C_17  and  C_18
REMARK   12  A    between atoms: C_19  and  C_20
REMARK   13  A    between atoms: C_20  and  C_21
REMARK   14  A    between atoms: C_21  and  C_22
REMARK                            x       y       z     vdW  Elec       q    Type
REMARK                         _______ _______ _______ _____ _____    ______ ____
ROOT
ATOM      1  C   UNL     1     -12.512   9.532  71.623  0.00  0.00    -0.026 C 
ATOM      2  C   UNL     1     -12.810  10.530  70.797  0.00  0.00    -0.026 C 
ENDROOT
BRANCH   1   3
ATOM      3  C   UNL     1     -11.509   8.542  71.125  0.00  0.00    +0.051 C 
BRANCH   3   5
ATOM      4  C   UNL     1      -9.159   8.530  71.785  0.00  0.00    -0.026 C 
ATOM      5  C   UNL     1     -10.430   8.394  72.143  0.00  0.00    -0.026 C 
BRANCH   4   6
ATOM      6  C   UNL     1      -8.744   8.493  70.346  0.00  0.00    +0.051 C 
BRANCH   6   8
ATOM      7  C   UNL     1      -8.169  10.199  68.649  0.00  0.00    -0.026 C 
ATOM      8  C   UNL     1      -8.337   9.865  69.928  0.00  0.00    -0.026 C 
BRANCH   7   9
ATOM      9  C   UNL     1      -8.414   9.106  67.652  0.00  0.00    +0.051 C 
BRANCH   9  11
ATOM     10  C   UNL     1     -10.629   8.369  67.081  0.00  0.00    -0.030 C 
ATOM     11  C   UNL     1      -9.687   9.294  66.926  0.00  0.00    -0.026 C 
BRANCH  10  13
ATOM     12  C   UNL     1     -11.012   6.222  68.289  0.00  0.00    +0.005 C 
ATOM     13  C   UNL     1     -10.239   6.936  67.195  0.00  0.00    +0.026 C 
ENDBRANCH  10  13
ENDBRANCH   9  11
ENDBRANCH   7   9
ENDBRANCH   6   8
ENDBRANCH   4   6
ENDBRANCH   3   5
ENDBRANCH   1   3
BRANCH   2  14
ATOM     14  C   UNL     1     -11.696  11.246  70.151  0.00  0.00    +0.051 C 
BRANCH  14  15
ATOM     15  C   UNL     1     -11.931  11.543  68.717  0.00  0.00    -0.026 C 
ATOM     16  C   UNL     1     -11.211  12.514  68.145  0.00  0.00    -0.026 C 
BRANCH  16  17
ATOM     17  C   UNL     1     -10.838  13.692  68.993  0.00  0.00    +0.051 C 
BRANCH  17  18
ATOM     18  C   UNL     1     -11.697  14.860  68.717  0.00  0.00    -0.026 C 
ATOM     19  C   UNL     1     -12.129  15.555  69.774  0.00  0.00    -0.030 C 
BRANCH  19  20
ATOM     20  C   UNL     1     -12.567  14.817  71.000  0.00  0.00    +0.038 C 
BRANCH  20  21
ATOM     21  C   UNL     1     -11.960  15.526  72.196  0.00  0.00    +0.119 C 
BRANCH  21  22
ATOM     22  C   UNL     1     -13.082  15.762  73.157  0.00  0.00    +0.365 C 
ATOM     23  O   UNL     1     -14.324  16.016  72.570  0.00  0.00    -0.246 OA
ATOM     24  O   UNL     1     -12.753  16.342  74.234  0.00  0.00    -0.246 OA
ENDBRANCH  21  22
ENDBRANCH  20  21
ENDBRANCH  19  20
ENDBRANCH  17  18
ENDBRANCH  16  17
ENDBRANCH  14  15
ENDBRANCH   2  14
TORSDOF 14
ENDMDL
MODEL 5
REMARK VINA RESULT:      -5.2      1.586      3.158
REMARK  Name = 
REMARK  14 active torsions:
REMARK  status: ('A' for Active; 'I' for Inactive)
REMARK    1  A    between atoms: C_2  and  C_3
REMARK    2  A    between atoms: C_4  and  C_5
REMARK    3  A    between atoms: C_5  and  C_6
REMARK    4  A    between atoms: C_7  and  C_8
REMARK    5  A    between atoms: C_8  and  C_9
REMARK    6  A    between atoms: C_10  and  C_11
REMARK    7  A    between atoms: C_11  and  C_12
REMARK    8  A    between atoms: C_13  and  C_14
REMARK    9  A    between atoms: C_14  and  C_15
REMARK   10  A    between atoms: C_16  and  C_17
REMARK   11  A    between atoms: C_17  and  C_18
REMARK   12  A    between atoms: C_19  and  C_20
REMARK   13  A    between atoms: C_20  and  C_21
REMARK   14  A    between atoms: C_21  and  C_22
REMARK                            x       y       z     vdW  Elec       q    Type
REMARK                         _______ _______ _______ _____ _____    ______ ____
ROOT
ATOM      1  C   UNL     1     -11.658  14.254  64.889  0.00  0.00    -0.026 C 
ATOM      2  C   UNL     1     -11.040  14.686  65.983  0.00  0.00    -0.026 C 
ENDROOT
BRANCH   1   3
ATOM      3  C   UNL     1     -12.232  12.876  64.958  0.00  0.00    +0.051 C 
BRANCH   3   5
ATOM      4  C   UNL     1     -10.862  11.175  63.867  0.00  0.00    -0.026 C 
ATOM      5  C   UNL     1     -11.795  12.111  63.754  0.00  0.00    -0.026 C 
BRANCH   4   6
ATOM      6  C   UNL     1      -9.990  11.083  65.082  0.00  0.00    +0.051 C 
BRANCH   6   8
ATOM      7  C   UNL     1     -10.480   9.403  66.831  0.00  0.00    -0.026 C 
ATOM      8  C   UNL     1     -10.042   9.688  65.606  0.00  0.00    -0.026 C 
BRANCH   7   9
ATOM      9  C   UNL     1     -10.920  10.576  67.655  0.00  0.00    +0.051 C 
BRANCH   9  11
ATOM     10  C   UNL     1     -10.106  10.065  69.858  0.00  0.00    -0.030 C 
ATOM     11  C   UNL     1     -10.000  10.837  68.782  0.00  0.00    -0.026 C 
BRANCH  10  13
ATOM     12  C   UNL     1     -11.365   8.591  71.426  0.00  0.00    +0.005 C 
ATOM     13  C   UNL     1     -11.452   9.614  70.309  0.00  0.00    +0.026 C 
ENDBRANCH  10  13
ENDBRANCH   9  11
ENDBRANCH   7   9
ENDBRANCH   6   8
ENDBRANCH   4   6
ENDBRANCH   3   5
ENDBRANCH   1   3
BRANCH   2  14
ATOM     14  C   UNL     1     -11.721  14.506  67.277  0.00  0.00    +0.051 C 
BRANCH  14  15
ATOM     15  C   UNL     1     -10.912  14.940  68.442  0.00  0.00    -0.026 C 
ATOM     16  C   UNL     1     -11.106  14.324  69.613  0.00  0.00    -0.026 C 
BRANCH  16  17
ATOM     17  C   UNL     1     -12.497  13.864  69.932  0.00  0.00    +0.051 C 
BRANCH  17  18
ATOM     18  C   UNL     1     -12.504  12.825  70.980  0.00  0.00    -0.026 C 
ATOM     19  C   UNL     1     -13.432  12.939  71.936  0.00  0.00    -0.030 C 
BRANCH  19  20
ATOM     20  C   UNL     1     -13.744  14.294  72.490  0.00  0.00    +0.038 C 
BRANCH  20  21
ATOM     21  C   UNL     1     -12.629  14.659  73.450  0.00  0.00    +0.119 C 
BRANCH  21  22
ATOM     22  C   UNL     1     -12.516  16.151  73.413  0.00  0.00    +0.365 C 
ATOM     23  O   UNL     1     -11.844  16.668  72.302  0.00  0.00    -0.246 OA
ATOM     24  O   UNL     1     -12.405  16.709  74.544  0.00  0.00    -0.246 OA
ENDBRANCH  21  22
ENDBRANCH  20  21
ENDBRANCH  19  20
ENDBRANCH  17  18
ENDBRANCH  16  17
ENDBRANCH  14  15
ENDBRANCH   2  14
TORSDOF 14
ENDMDL
MODEL 6
REMARK VINA RESULT:      -5.2      3.202      7.805
REMARK  Name = 
REMARK  14 active torsions:
REMARK  status: ('A' for Active; 'I' for Inactive)
REMARK    1  A    between atoms: C_2  and  C_3
REMARK    2  A    between atoms: C_4  and  C_5
REMARK    3  A    between atoms: C_5  and  C_6
REMARK    4  A    between atoms: C_7  and  C_8
REMARK    5  A    between atoms: C_8  and  C_9
REMARK    6  A    between atoms: C_10  and  C_11
REMARK    7  A    between atoms: C_11  and  C_12
REMARK    8  A    between atoms: C_13  and  C_14
REMARK    9  A    between atoms: C_14  and  C_15
REMARK   10  A    between atoms: C_16  and  C_17
REMARK   11  A    between atoms: C_17  and  C_18
REMARK   12  A    between atoms: C_19  and  C_20
REMARK   13  A    between atoms: C_20  and  C_21
REMARK   14  A    between atoms: C_21  and  C_22
REMARK                            x       y       z     vdW  Elec       q    Type
REMARK                         _______ _______ _______ _____ _____    ______ ____
ROOT
ATOM      1  C   UNL     1     -14.139  14.036  72.196  0.00  0.00    -0.026 C 
ATOM      2  C   UNL     1     -13.331  12.981  72.194  0.00  0.00    -0.026 C 
ENDROOT
BRANCH   1   3
ATOM      3  C   UNL     1     -13.718  15.189  71.343  0.00  0.00    +0.051 C 
BRANCH   3   5
ATOM      4  C   UNL     1     -11.542  16.249  71.025  0.00  0.00    -0.026 C 
ATOM      5  C   UNL     1     -12.429  15.729  71.864  0.00  0.00    -0.026 C 
BRANCH   4   6
ATOM      6  C   UNL     1     -11.632  16.015  69.548  0.00  0.00    +0.051 C 
BRANCH   6   8
ATOM      7  C   UNL     1      -9.670  14.770  68.698  0.00  0.00    -0.026 C 
ATOM      8  C   UNL     1     -10.897  14.760  69.216  0.00  0.00    -0.026 C 
BRANCH   7   9
ATOM      9  C   UNL     1      -9.070  16.125  68.467  0.00  0.00    +0.051 C 
BRANCH   9  11
ATOM     10  C   UNL     1      -8.992  17.751  66.698  0.00  0.00    -0.030 C 
ATOM     11  C   UNL     1      -9.006  16.464  67.030  0.00  0.00    -0.026 C 
BRANCH  10  13
ATOM     12  C   UNL     1     -10.591  19.661  66.582  0.00  0.00    +0.005 C 
ATOM     13  C   UNL     1      -9.810  18.719  67.480  0.00  0.00    +0.026 C 
ENDBRANCH  10  13
ENDBRANCH   9  11
ENDBRANCH   7   9
ENDBRANCH   6   8
ENDBRANCH   4   6
ENDBRANCH   3   5
ENDBRANCH   1   3
BRANCH   2  14
ATOM     14  C   UNL     1     -12.857  12.478  70.893  0.00  0.00    +0.051 C 
BRANCH  14  15
ATOM     15  C   UNL     1     -12.549  11.027  70.892  0.00  0.00    -0.026 C 
ATOM     16  C   UNL     1     -11.484  10.606  70.202  0.00  0.00    -0.026 C 
BRANCH  16  17
ATOM     17  C   UNL     1     -11.144  11.336  68.937  0.00  0.00    +0.051 C 
BRANCH  17  18
ATOM     18  C   UNL     1     -11.134  10.435  67.769  0.00  0.00    -0.026 C 
ATOM     19  C   UNL     1     -10.972  11.003  66.570  0.00  0.00    -0.030 C 
BRANCH  19  20
ATOM     20  C   UNL     1     -11.671  12.293  66.274  0.00  0.00    +0.038 C 
BRANCH  20  21
ATOM     21  C   UNL     1     -11.051  12.866  65.015  0.00  0.00    +0.119 C 
BRANCH  21  22
ATOM     22  C   UNL     1     -12.188  13.178  64.093  0.00  0.00    +0.365 C 
ATOM     23  O   UNL     1     -12.495  14.536  63.967  0.00  0.00    -0.246 OA
ATOM     24  O   UNL     1     -13.108  12.309  64.063  0.00  0.00    -0.246 OA
ENDBRANCH  21  22
ENDBRANCH  20  21
ENDBRANCH  19  20
ENDBRANCH  17  18
ENDBRANCH  16  17
ENDBRANCH  14  15
ENDBRANCH   2  14
TORSDOF 14
ENDMDL
MODEL 7
REMARK VINA RESULT:      -5.2      2.727      6.101
REMARK  Name = 
REMARK  14 active torsions:
REMARK  status: ('A' for Active; 'I' for Inactive)
REMARK    1  A    between atoms: C_2  and  C_3
REMARK    2  A    between atoms: C_4  and  C_5
REMARK    3  A    between atoms: C_5  and  C_6
REMARK    4  A    between atoms: C_7  and  C_8
REMARK    5  A    between atoms: C_8  and  C_9
REMARK    6  A    between atoms: C_10  and  C_11
REMARK    7  A    between atoms: C_11  and  C_12
REMARK    8  A    between atoms: C_13  and  C_14
REMARK    9  A    between atoms: C_14  and  C_15
REMARK   10  A    between atoms: C_16  and  C_17
REMARK   11  A    between atoms: C_17  and  C_18
REMARK   12  A    between atoms: C_19  and  C_20
REMARK   13  A    between atoms: C_20  and  C_21
REMARK   14  A    between atoms: C_21  and  C_22
REMARK                            x       y       z     vdW  Elec       q    Type
REMARK                         _______ _______ _______ _____ _____    ______ ____
ROOT
ATOM      1  C   UNL     1     -12.002  12.855  64.222  0.00  0.00    -0.026 C 
ATOM      2  C   UNL     1     -11.658  11.753  64.880  0.00  0.00    -0.026 C 
ENDROOT
BRANCH   1   3
ATOM      3  C   UNL     1     -12.321  14.049  65.061  0.00  0.00    +0.051 C 
BRANCH   3   5
ATOM      4  C   UNL     1     -10.649  15.793  65.414  0.00  0.00    -0.026 C 
ATOM      5  C   UNL     1     -11.503  15.204  64.588  0.00  0.00    -0.026 C 
BRANCH   4   6
ATOM      6  C   UNL     1     -10.711  15.568  66.894  0.00  0.00    +0.051 C 
BRANCH   6   8
ATOM      7  C   UNL     1      -8.600  15.727  68.176  0.00  0.00    -0.026 C 
ATOM      8  C   UNL     1      -9.394  15.041  67.356  0.00  0.00    -0.026 C 
BRANCH   7   9
ATOM      9  C   UNL     1      -9.114  17.068  68.610  0.00  0.00    +0.051 C 
BRANCH   9  11
ATOM     10  C   UNL     1      -8.378  19.174  67.715  0.00  0.00    -0.030 C 
ATOM     11  C   UNL     1      -8.088  18.123  68.476  0.00  0.00    -0.026 C 
BRANCH  10  13
ATOM     12  C   UNL     1     -10.474  19.759  66.498  0.00  0.00    +0.005 C 
ATOM     13  C   UNL     1      -9.171  18.982  66.469  0.00  0.00    +0.026 C 
ENDBRANCH  10  13
ENDBRANCH   9  11
ENDBRANCH   7   9
ENDBRANCH   6   8
ENDBRANCH   4   6
ENDBRANCH   3   5
ENDBRANCH   1   3
BRANCH   2  14
ATOM     14  C   UNL     1     -10.657  11.875  65.954  0.00  0.00    +0.051 C 
BRANCH  14  15
ATOM     15  C   UNL     1     -10.658  10.735  66.902  0.00  0.00    -0.026 C 
ATOM     16  C   UNL     1     -11.396  10.835  68.013  0.00  0.00    -0.026 C 
BRANCH  16  17
ATOM     17  C   UNL     1     -11.526  12.192  68.639  0.00  0.00    +0.051 C 
BRANCH  17  18
ATOM     18  C   UNL     1     -11.941  12.106  70.052  0.00  0.00    -0.026 C 
ATOM     19  C   UNL     1     -12.379  13.234  70.621  0.00  0.00    -0.030 C 
BRANCH  19  20
ATOM     20  C   UNL     1     -11.676  14.521  70.323  0.00  0.00    +0.038 C 
BRANCH  20  21
ATOM     21  C   UNL     1     -12.648  15.647  70.617  0.00  0.00    +0.119 C 
BRANCH  21  22
ATOM     22  C   UNL     1     -12.861  15.641  72.098  0.00  0.00    +0.365 C 
ATOM     23  O   UNL     1     -14.138  16.022  72.517  0.00  0.00    -0.246 OA
ATOM     24  O   UNL     1     -11.843  15.949  72.787  0.00  0.00    -0.246 OA
ENDBRANCH  21  22
ENDBRANCH  20  21
ENDBRANCH  19  20
ENDBRANCH  17  18
ENDBRANCH  16  17
ENDBRANCH  14  15
ENDBRANCH   2  14
TORSDOF 14
ENDMDL
MODEL 8
REMARK VINA RESULT:      -5.2      1.708      5.456
REMARK  Name = 
REMARK  14 active torsions:
REMARK  status: ('A' for Active; 'I' for Inactive)
REMARK    1  A    between atoms: C_2  and  C_3
REMARK    2  A    between atoms: C_4  and  C_5
REMARK    3  A    between atoms: C_5  and  C_6
REMARK    4  A    between atoms: C_7  and  C_8
REMARK    5  A    between atoms: C_8  and  C_9
REMARK    6  A    between atoms: C_10  and  C_11
REMARK    7  A    between atoms: C_11  and  C_12
REMARK    8  A    between atoms: C_13  and  C_14
REMARK    9  A    between atoms: C_14  and  C_15
REMARK   10  A    between atoms: C_16  and  C_17
REMARK   11  A    between atoms: C_17  and  C_18
REMARK   12  A    between atoms: C_19  and  C_20
REMARK   13  A    between atoms: C_20  and  C_21
REMARK   14  A    between atoms: C_21  and  C_22
REMARK                            x       y       z     vdW  Elec       q    Type
REMARK                         _______ _______ _______ _____ _____    ______ ____
ROOT
ATOM      1  C   UNL     1      -9.981  10.566  68.404  0.00  0.00    -0.026 C 
ATOM      2  C   UNL     1     -10.606  10.019  69.441  0.00  0.00    -0.026 C 
ENDROOT
BRANCH   1   3
ATOM      3  C   UNL     1     -10.765  10.653  67.135  0.00  0.00    +0.051 C 
BRANCH   3   5
ATOM      4  C   UNL     1      -9.729  10.085  64.998  0.00  0.00    -0.026 C 
ATOM      5  C   UNL     1     -10.215   9.667  66.160  0.00  0.00    -0.026 C 
BRANCH   4   6
ATOM      6  C   UNL     1     -10.014  11.462  64.482  0.00  0.00    +0.051 C 
BRANCH   6   8
ATOM      7  C   UNL     1     -12.231  12.068  63.566  0.00  0.00    -0.026 C 
ATOM      8  C   UNL     1     -11.097  11.378  63.461  0.00  0.00    -0.026 C 
BRANCH   7   9
ATOM      9  C   UNL     1     -12.353  12.940  64.781  0.00  0.00    +0.051 C 
BRANCH   9  11
ATOM     10  C   UNL     1     -11.131  14.990  65.064  0.00  0.00    -0.030 C 
ATOM     11  C   UNL     1     -12.139  14.367  64.462  0.00  0.00    -0.026 C 
BRANCH  10  13
ATOM     12  C   UNL     1      -9.349  14.279  66.656  0.00  0.00    +0.005 C 
ATOM     13  C   UNL     1     -10.806  14.664  66.480  0.00  0.00    +0.026 C 
ENDBRANCH  10  13
ENDBRANCH   9  11
ENDBRANCH   7   9
ENDBRANCH   6   8
ENDBRANCH   4   6
ENDBRANCH   3   5
ENDBRANCH   1   3
BRANCH   2  14
ATOM     14  C   UNL     1     -11.974  10.476  69.743  0.00  0.00    +0.051 C 
BRANCH  14  15
ATOM     15  C   UNL     1     -12.445  10.094  71.096  0.00  0.00    -0.026 C 
ATOM     16  C   UNL     1     -13.166  10.981  71.790  0.00  0.00    -0.026 C 
BRANCH  16  17
ATOM     17  C   UNL     1     -12.840  12.433  71.608  0.00  0.00    +0.051 C 
BRANCH  17  18
ATOM     18  C   UNL     1     -13.797  13.303  72.318  0.00  0.00    -0.026 C 
ATOM     19  C   UNL     1     -13.528  14.613  72.331  0.00  0.00    -0.030 C 
BRANCH  19  20
ATOM     20  C   UNL     1     -12.115  15.064  72.525  0.00  0.00    +0.038 C 
BRANCH  20  21
ATOM     21  C   UNL     1     -11.868  16.209  71.563  0.00  0.00    +0.119 C 
BRANCH  21  22
ATOM     22  C   UNL     1     -11.736  15.594  70.205  0.00  0.00    +0.365 C 
ATOM     23  O   UNL     1     -10.637  14.747  70.040  0.00  0.00    -0.246 OA
ATOM     24  O   UNL     1     -12.133  16.321  69.246  0.00  0.00    -0.246 OA
ENDBRANCH  21  22
ENDBRANCH  20  21
ENDBRANCH  19  20
ENDBRANCH  17  18
ENDBRANCH  16  17
ENDBRANCH  14  15
ENDBRANCH   2  14
TORSDOF 14
ENDMDL
MODEL 9
REMARK VINA RESULT:      -5.2      1.944      5.052
REMARK  Name = 
REMARK  14 active torsions:
REMARK  status: ('A' for Active; 'I' for Inactive)
REMARK    1  A    between atoms: C_2  and  C_3
REMARK    2  A    between atoms: C_4  and  C_5
REMARK    3  A    between atoms: C_5  and  C_6
REMARK    4  A    between atoms: C_7  and  C_8
REMARK    5  A    between atoms: C_8  and  C_9
REMARK    6  A    between atoms: C_10  and  C_11
REMARK    7  A    between atoms: C_11  and  C_12
REMARK    8  A    between atoms: C_13  and  C_14
REMARK    9  A    between atoms: C_14  and  C_15
REMARK   10  A    between atoms: C_16  and  C_17
REMARK   11  A    between atoms: C_17  and  C_18
REMARK   12  A    between atoms: C_19  and  C_20
REMARK   13  A    between atoms: C_20  and  C_21
REMARK   14  A    between atoms: C_21  and  C_22
REMARK                            x       y       z     vdW  Elec       q    Type
REMARK                         _______ _______ _______ _____ _____    ______ ____
ROOT
ATOM      1  C   UNL     1     -11.017  11.730  63.494  0.00  0.00    -0.026 C 
ATOM      2  C   UNL     1     -10.243  10.800  64.042  0.00  0.00    -0.026 C 
ENDROOT
BRANCH   1   3
ATOM      3  C   UNL     1     -12.103  12.278  64.362  0.00  0.00    +0.051 C 
BRANCH   3   5
ATOM      4  C   UNL     1     -11.889  14.598  65.090  0.00  0.00    -0.026 C 
ATOM      5  C   UNL     1     -12.215  13.746  64.127  0.00  0.00    -0.026 C 
BRANCH   4   6
ATOM      6  C   UNL     1     -11.733  14.149  66.511  0.00  0.00    +0.051 C 
BRANCH   6   8
ATOM      7  C   UNL     1      -9.999  14.680  68.194  0.00  0.00    -0.026 C 
ATOM      8  C   UNL     1     -10.323  14.383  66.937  0.00  0.00    -0.026 C 
BRANCH   7   9
ATOM      9  C   UNL     1     -11.143  14.766  69.160  0.00  0.00    +0.051 C 
BRANCH   9  11
ATOM     10  C   UNL     1     -11.780  15.958  71.147  0.00  0.00    -0.030 C 
ATOM     11  C   UNL     1     -11.028  15.939  70.051  0.00  0.00    -0.026 C 
BRANCH  10  13
ATOM     12  C   UNL     1     -13.807  15.366  72.473  0.00  0.00    +0.005 C 
ATOM     13  C   UNL     1     -13.163  15.407  71.099  0.00  0.00    +0.026 C 
ENDBRANCH  10  13
ENDBRANCH   9  11
ENDBRANCH   7   9
ENDBRANCH   6   8
ENDBRANCH   4   6
ENDBRANCH   3   5
ENDBRANCH   1   3
BRANCH   2  14
ATOM     14  C   UNL     1      -9.706  11.056  65.390  0.00  0.00    +0.051 C 
BRANCH  14  15
ATOM     15  C   UNL     1      -9.672   9.853  66.255  0.00  0.00    -0.026 C 
ATOM     16  C   UNL     1     -10.676   9.665  67.119  0.00  0.00    -0.026 C 
BRANCH  16  17
ATOM     17  C   UNL     1     -11.297  10.883  67.735  0.00  0.00    +0.051 C 
BRANCH  17  18
ATOM     18  C   UNL     1     -10.691  11.206  69.041  0.00  0.00    -0.026 C 
ATOM     19  C   UNL     1     -11.183  10.569  70.108  0.00  0.00    -0.030 C 
BRANCH  19  20
ATOM     20  C   UNL     1     -12.661  10.360  70.215  0.00  0.00    +0.038 C 
BRANCH  20  21
ATOM     21  C   UNL     1     -13.022  10.413  71.686  0.00  0.00    +0.119 C 
BRANCH  21  22
ATOM     22  C   UNL     1     -13.298   9.002  72.102  0.00  0.00    +0.365 C 
ATOM     23  O   UNL     1     -14.576   8.773  72.617  0.00  0.00    -0.246 OA
ATOM     24  O   UNL     1     -12.300   8.375  72.565  0.00  0.00    -0.246 OA
ENDBRANCH  21  22
ENDBRANCH  20  21
ENDBRANCH  19  20
ENDBRANCH  17  18
ENDBRANCH  16  17
ENDBRANCH  14  15
ENDBRANCH   2  14
TORSDOF 14
ENDMDL
