MODEL 1
REMARK VINA RESULT:      -4.9      0.000      0.000
REMARK  Name = 
REMARK  1 active torsions:
REMARK  status: ('A' for Active; 'I' for Inactive)
REMARK    1  A    between atoms: N_4  and  C_5
REMARK                            x       y       z     vdW  Elec       q    Type
REMARK                         _______ _______ _______ _____ _____    ______ ____
ROOT
ATOM      1  C   UNL     1     -11.686  15.497  70.043  0.00  0.00    +0.084 A 
ATOM      2  C   UNL     1     -11.865  16.022  71.316  0.00  0.00    +0.022 A 
ATOM      3  C   UNL     1     -12.670  15.397  72.259  0.00  0.00    +0.044 A 
ATOM      4  C   UNL     1     -13.100  14.097  72.022  0.00  0.00    +0.196 A 
ATOM      5  O   UNL     1     -14.325  13.671  72.545  0.00  0.00    -0.287 OA
ATOM      6  C   UNL     1     -12.487  13.428  70.967  0.00  0.00    +0.044 A 
ATOM      7  C   UNL     1     -11.875  14.124  69.940  0.00  0.00    +0.022 A 
ENDROOT
BRANCH   1  10
ATOM      8  C   UNL     1      -9.362  16.384  68.781  0.00  0.00    +0.100 C 
ATOM      9  C   UNL     1     -10.685  17.035  68.590  0.00  0.00    +0.256 C 
ATOM     10  N   UNL     1     -11.733  16.318  68.871  0.00  0.00    -0.212 NA
ATOM     11  O   UNL     1     -10.818  18.279  67.965  0.00  0.00    -0.270 OA
ENDBRANCH   1  10
TORSDOF 1
ENDMDL
MODEL 2
REMARK VINA RESULT:      -4.7      1.898      2.258
REMARK  Name = 
REMARK  1 active torsions:
REMARK  status: ('A' for Active; 'I' for Inactive)
REMARK    1  A    between atoms: N_4  and  C_5
REMARK                            x       y       z     vdW  Elec       q    Type
REMARK                         _______ _______ _______ _____ _____    ______ ____
ROOT
ATOM      1  C   UNL     1     -12.458  15.383  70.519  0.00  0.00    +0.084 A 
ATOM      2  C   UNL     1     -11.448  15.112  71.434  0.00  0.00    +0.022 A 
ATOM      3  C   UNL     1     -11.612  15.341  72.794  0.00  0.00    +0.044 A 
ATOM      4  C   UNL     1     -12.885  15.600  73.285  0.00  0.00    +0.196 A 
ATOM      5  O   UNL     1     -13.035  16.411  74.414  0.00  0.00    -0.287 OA
ATOM      6  C   UNL     1     -13.942  15.369  72.410  0.00  0.00    +0.044 A 
ATOM      7  C   UNL     1     -13.746  15.360  71.040  0.00  0.00    +0.022 A 
ENDROOT
BRANCH   1  10
ATOM      8  C   UNL     1     -11.926  13.958  68.181  0.00  0.00    +0.100 C 
ATOM      9  C   UNL     1     -11.553  15.386  68.361  0.00  0.00    +0.256 C 
ATOM     10  N   UNL     1     -12.198  16.045  69.278  0.00  0.00    -0.212 NA
ATOM     11  O   UNL     1     -10.694  16.046  67.476  0.00  0.00    -0.270 OA
ENDBRANCH   1  10
TORSDOF 1
ENDMDL
MODEL 3
REMARK VINA RESULT:      -4.6      2.879      3.306
REMARK  Name = 
REMARK  1 active torsions:
REMARK  status: ('A' for Active; 'I' for Inactive)
REMARK    1  A    between atoms: N_4  and  C_5
REMARK                            x       y       z     vdW  Elec       q    Type
REMARK                         _______ _______ _______ _____ _____    ______ ____
ROOT
ATOM      1  C   UNL     1     -12.332  14.444  70.654  0.00  0.00    +0.084 A 
ATOM      2  C   UNL     1     -13.618  14.476  71.177  0.00  0.00    +0.022 A 
ATOM      3  C   UNL     1     -13.897  15.078  72.397  0.00  0.00    +0.044 A 
ATOM      4  C   UNL     1     -12.932  15.885  72.986  0.00  0.00    +0.196 A 
ATOM      5  O   UNL     1     -12.877  15.986  74.380  0.00  0.00    -0.287 OA
ATOM      6  C   UNL     1     -11.846  16.229  72.189  0.00  0.00    +0.044 A 
ATOM      7  C   UNL     1     -11.491  15.460  71.095  0.00  0.00    +0.022 A 
ENDROOT
BRANCH   1  10
ATOM      8  C   UNL     1     -11.804  14.269  67.920  0.00  0.00    +0.100 C 
ATOM      9  C   UNL     1     -11.955  13.075  68.794  0.00  0.00    +0.256 C 
ATOM     10  N   UNL     1     -11.781  13.260  70.069  0.00  0.00    -0.212 NA
ATOM     11  O   UNL     1     -12.090  11.785  68.271  0.00  0.00    -0.270 OA
ENDBRANCH   1  10
TORSDOF 1
ENDMDL
MODEL 4
REMARK VINA RESULT:      -4.5      2.602      4.020
REMARK  Name = 
REMARK  1 active torsions:
REMARK  status: ('A' for Active; 'I' for Inactive)
REMARK    1  A    between atoms: N_4  and  C_5
REMARK                            x       y       z     vdW  Elec       q    Type
REMARK                         _______ _______ _______ _____ _____    ______ ____
ROOT
ATOM      1  C   UNL     1     -12.300  14.283  70.189  0.00  0.00    +0.084 A 
ATOM      2  C   UNL     1     -12.213  13.003  70.721  0.00  0.00    +0.022 A 
ATOM      3  C   UNL     1     -12.015  11.888  69.916  0.00  0.00    +0.044 A 
ATOM      4  C   UNL     1     -11.641  12.072  68.591  0.00  0.00    +0.196 A 
ATOM      5  O   UNL     1     -12.024  11.131  67.631  0.00  0.00    -0.287 OA
ATOM      6  C   UNL     1     -11.252  13.359  68.233  0.00  0.00    +0.044 A 
ATOM      7  C   UNL     1     -11.661  14.459  68.967  0.00  0.00    +0.022 A 
ENDROOT
BRANCH   1  10
ATOM      8  C   UNL     1     -11.881  15.990  72.355  0.00  0.00    +0.100 C 
ATOM      9  C   UNL     1     -13.235  15.656  71.838  0.00  0.00    +0.256 C 
ATOM     10  N   UNL     1     -13.299  15.215  70.617  0.00  0.00    -0.212 NA
ATOM     11  O   UNL     1     -14.399  15.972  72.546  0.00  0.00    -0.270 OA
ENDBRANCH   1  10
TORSDOF 1
ENDMDL
MODEL 5
REMARK VINA RESULT:      -4.5      3.677      5.528
REMARK  Name = 
REMARK  1 active torsions:
REMARK  status: ('A' for Active; 'I' for Inactive)
REMARK    1  A    between atoms: N_4  and  C_5
REMARK                            x       y       z     vdW  Elec       q    Type
REMARK                         _______ _______ _______ _____ _____    ______ ____
ROOT
ATOM      1  C   UNL     1     -11.547  14.663  66.485  0.00  0.00    +0.084 A 
ATOM      2  C   UNL     1     -10.677  15.469  65.761  0.00  0.00    +0.022 A 
ATOM      3  C   UNL     1     -10.294  16.724  66.215  0.00  0.00    +0.044 A 
ATOM      4  C   UNL     1     -10.573  17.079  67.529  0.00  0.00    +0.196 A 
ATOM      5  O   UNL     1     -10.795  18.423  67.846  0.00  0.00    -0.287 OA
ATOM      6  C   UNL     1     -11.000  16.054  68.367  0.00  0.00    +0.044 A 
ATOM      7  C   UNL     1     -11.571  14.903  67.854  0.00  0.00    +0.022 A 
ENDROOT
BRANCH   1  10
ATOM      8  C   UNL     1     -11.390  11.934  65.927  0.00  0.00    +0.100 C 
ATOM      9  C   UNL     1     -12.351  12.844  65.251  0.00  0.00    +0.256 C 
ATOM     10  N   UNL     1     -12.625  13.959  65.860  0.00  0.00    -0.212 NA
ATOM     11  O   UNL     1     -13.071  12.454  64.117  0.00  0.00    -0.270 OA
ENDBRANCH   1  10
TORSDOF 1
ENDMDL
MODEL 6
REMARK VINA RESULT:      -4.5      4.167      4.643
REMARK  Name = 
REMARK  1 active torsions:
REMARK  status: ('A' for Active; 'I' for Inactive)
REMARK    1  A    between atoms: N_4  and  C_5
REMARK                            x       y       z     vdW  Elec       q    Type
REMARK                         _______ _______ _______ _____ _____    ______ ____
ROOT
ATOM      1  C   UNL     1     -11.714  12.522  66.753  0.00  0.00    +0.084 A 
ATOM      2  C   UNL     1     -11.619  13.620  67.598  0.00  0.00    +0.022 A 
ATOM      3  C   UNL     1     -11.762  13.499  68.974  0.00  0.00    +0.044 A 
ATOM      4  C   UNL     1     -11.744  12.232  69.544  0.00  0.00    +0.196 A 
ATOM      5  O   UNL     1     -12.469  11.995  70.717  0.00  0.00    -0.287 OA
ATOM      6  C   UNL     1     -11.336  11.190  68.718  0.00  0.00    +0.044 A 
ATOM      7  C   UNL     1     -11.415  11.298  67.341  0.00  0.00    +0.022 A 
ENDROOT
BRANCH   1  10
ATOM      8  C   UNL     1     -10.462  12.885  64.287  0.00  0.00    +0.100 C 
ATOM      9  C   UNL     1     -11.909  13.151  64.507  0.00  0.00    +0.256 C 
ATOM     10  N   UNL     1     -12.458  12.568  65.531  0.00  0.00    -0.212 NA
ATOM     11  O   UNL     1     -12.689  13.833  63.568  0.00  0.00    -0.270 OA
ENDBRANCH   1  10
TORSDOF 1
ENDMDL
MODEL 7
REMARK VINA RESULT:      -4.4      4.450      6.487
REMARK  Name = 
REMARK  1 active torsions:
REMARK  status: ('A' for Active; 'I' for Inactive)
REMARK    1  A    between atoms: N_4  and  C_5
REMARK                            x       y       z     vdW  Elec       q    Type
REMARK                         _______ _______ _______ _____ _____    ______ ____
ROOT
ATOM      1  C   UNL     1     -11.193  13.288  66.402  0.00  0.00    +0.084 A 
ATOM      2  C   UNL     1     -12.169  13.413  65.422  0.00  0.00    +0.022 A 
ATOM      3  C   UNL     1     -12.242  14.529  64.600  0.00  0.00    +0.044 A 
ATOM      4  C   UNL     1     -11.176  15.420  64.577  0.00  0.00    +0.196 A 
ATOM      5  O   UNL     1     -11.415  16.772  64.311  0.00  0.00    -0.287 OA
ATOM      6  C   UNL     1     -10.005  14.996  65.198  0.00  0.00    +0.044 A 
ATOM      7  C   UNL     1     -10.029  14.012  66.170  0.00  0.00    +0.022 A 
ENDROOT
BRANCH   1  10
ATOM      8  C   UNL     1     -10.471  10.734  67.262  0.00  0.00    +0.100 C 
ATOM      9  C   UNL     1     -11.533  11.541  67.921  0.00  0.00    +0.256 C 
ATOM     10  N   UNL     1     -11.498  12.825  67.721  0.00  0.00    -0.212 NA
ATOM     11  O   UNL     1     -12.413  10.986  68.856  0.00  0.00    -0.270 OA
ENDBRANCH   1  10
TORSDOF 1
ENDMDL
MODEL 8
REMARK VINA RESULT:      -4.4      3.332      5.050
REMARK  Name = 
REMARK  1 active torsions:
REMARK  status: ('A' for Active; 'I' for Inactive)
REMARK    1  A    between atoms: N_4  and  C_5
REMARK                            x       y       z     vdW  Elec       q    Type
REMARK                         _______ _______ _______ _____ _____    ______ ____
ROOT
ATOM      1  C   UNL     1     -11.210  15.392  67.431  0.00  0.00    +0.084 A 
ATOM      2  C   UNL     1     -11.893  14.199  67.227  0.00  0.00    +0.022 A 
ATOM      3  C   UNL     1     -12.340  13.818  65.969  0.00  0.00    +0.044 A 
ATOM      4  C   UNL     1     -11.879  14.505  64.853  0.00  0.00    +0.196 A 
ATOM      5  O   UNL     1     -12.698  14.611  63.724  0.00  0.00    -0.287 OA
ATOM      6  C   UNL     1     -10.810  15.370  65.061  0.00  0.00    +0.044 A 
ATOM      7  C   UNL     1     -10.541  15.885  66.316  0.00  0.00    +0.022 A 
ENDROOT
BRANCH   1  10
ATOM      8  C   UNL     1      -9.571  15.518  69.685  0.00  0.00    +0.100 C 
ATOM      9  C   UNL     1     -10.987  15.974  69.686  0.00  0.00    +0.256 C 
ATOM     10  N   UNL     1     -11.508  16.258  68.530  0.00  0.00    -0.212 NA
ATOM     11  O   UNL     1     -11.671  16.266  70.871  0.00  0.00    -0.270 OA
ENDBRANCH   1  10
TORSDOF 1
ENDMDL
MODEL 9
REMARK VINA RESULT:      -4.3      6.267      7.558
REMARK  Name = 
REMARK  1 active torsions:
REMARK  status: ('A' for Active; 'I' for Inactive)
REMARK    1  A    between atoms: N_4  and  C_5
REMARK                            x       y       z     vdW  Elec       q    Type
REMARK                         _______ _______ _______ _____ _____    ______ ____
ROOT
ATOM      1  C   UNL     1     -10.702  12.845  64.281  0.00  0.00    +0.084 A 
ATOM      2  C   UNL     1      -9.926  13.650  65.105  0.00  0.00    +0.022 A 
ATOM      3  C   UNL     1     -10.159  15.014  65.226  0.00  0.00    +0.044 A 
ATOM      4  C   UNL     1     -11.341  15.542  64.722  0.00  0.00    +0.196 A 
ATOM      5  O   UNL     1     -11.361  16.860  64.256  0.00  0.00    -0.287 OA
ATOM      6  C   UNL     1     -12.317  14.624  64.349  0.00  0.00    +0.044 A 
ATOM      7  C   UNL     1     -11.986  13.318  64.036  0.00  0.00    +0.022 A 
ENDROOT
BRANCH   1  10
ATOM      8  C   UNL     1     -10.196  10.243  65.151  0.00  0.00    +0.100 C 
ATOM      9  C   UNL     1      -9.528  10.845  63.966  0.00  0.00    +0.256 C 
ATOM     10  N   UNL     1     -10.122  11.862  63.417  0.00  0.00    -0.212 NA
ATOM     11  O   UNL     1      -8.423  10.246  63.353  0.00  0.00    -0.270 OA
ENDBRANCH   1  10
TORSDOF 1
ENDMDL
