MODEL 1
REMARK VINA RESULT:      -9.8      0.000      0.000
REMARK  Name = 
REMARK  3 active torsions:
REMARK  status: ('A' for Active; 'I' for Inactive)
REMARK    1  A    between atoms: O_2  and  C_3
REMARK    2  A    between atoms: C_4  and  N_5
REMARK    3  A    between atoms: C_7  and  C_9
REMARK                            x       y       z     vdW  Elec       q    Type
REMARK                         _______ _______ _______ _____ _____    ______ ____
ROOT
ATOM      1  C   UNL     1      -9.378  14.878  66.122  0.00  0.00    +0.178 C 
ATOM      2  C   UNL     1     -10.575  13.871  66.560  0.00  0.00    +0.192 C 
ATOM      3  N   UNL     1     -10.055  12.699  67.185  0.00  0.00    -0.305 N 
ATOM      4  C   UNL     1     -10.403  12.325  68.445  0.00  0.00    +0.077 A 
ATOM      5  C   UNL     1     -10.213  10.954  68.562  0.00  0.00    +0.017 A 
ATOM      6  C   UNL     1     -10.819  10.234  69.588  0.00  0.00    +0.005 A 
ATOM      7  C   UNL     1     -11.263   8.803  69.580  0.00  0.00    +0.142 C 
ATOM      8  N   UNL     1     -12.145   8.656  70.702  0.00  0.00    -0.197 NA
ATOM      9  C   UNL     1     -12.303   9.917  71.364  0.00  0.00    +0.265 C 
ATOM     10  O   UNL     1     -13.211  10.074  72.222  0.00  0.00    -0.268 OA
ATOM     11  C   UNL     1     -11.635  10.883  70.509  0.00  0.00    +0.054 A 
ATOM     12  C   UNL     1     -11.936  12.223  70.328  0.00  0.00    +0.023 A 
ATOM     13  C   UNL     1     -12.625  13.174  71.060  0.00  0.00    +0.017 A 
ATOM     14  C   UNL     1     -12.688  14.286  70.239  0.00  0.00    +0.062 A 
ATOM     15  N   UNL     1     -12.035  13.988  69.103  0.00  0.00    -0.304 N 
ATOM     16  C   UNL     1     -11.750  15.229  68.168  0.00  0.00    +0.208 C 
ATOM     17  C   UNL     1     -10.111  15.170  68.417  0.00  0.00    +0.076 C 
ATOM     18  C   UNL     1     -13.598  15.287  70.558  0.00  0.00    +0.017 A 
ATOM     19  C   UNL     1     -14.414  15.129  71.651  0.00  0.00    +0.001 A 
ATOM     20  C   UNL     1     -14.124  14.161  72.605  0.00  0.00    +0.000 A 
ATOM     21  C   UNL     1     -13.228  13.150  72.290  0.00  0.00    +0.001 A 
ATOM     22  C   UNL     1      -9.531  10.526  67.429  0.00  0.00    +0.017 A 
ATOM     23  C   UNL     1      -9.518   9.270  66.829  0.00  0.00    +0.001 A 
ATOM     24  C   UNL     1      -9.506   9.107  65.458  0.00  0.00    +0.000 A 
ATOM     25  C   UNL     1      -8.899  10.133  64.745  0.00  0.00    +0.001 A 
ATOM     26  C   UNL     1      -9.180  11.403  65.235  0.00  0.00    +0.017 A 
ATOM     27  C   UNL     1     -11.329  12.912  69.303  0.00  0.00    +0.078 A 
ATOM     28  C   UNL     1      -9.499  11.622  66.572  0.00  0.00    +0.062 A 
ATOM     29  C   UNL     1     -10.900  13.404  65.124  0.00  0.00    +0.057 C 
ATOM     30  O   UNL     1     -11.684  14.402  66.905  0.00  0.00    -0.319 OA
ATOM     31  C   UNL     1      -9.908  16.161  67.143  0.00  0.00    +0.111 C 
ENDROOT
BRANCH  31  32
ATOM     32  N   UNL     1      -8.490  16.676  67.528  0.00  0.00    -0.273 N 
ATOM     33  C   UNL     1      -8.212  17.886  66.798  0.00  0.00    +0.249 C 
ATOM     34  O   UNL     1      -8.891  18.315  65.850  0.00  0.00    -0.270 OA
ATOM     35  C   UNL     1      -8.158  16.831  68.941  0.00  0.00    +0.115 C 
BRANCH  33  36
ATOM     36  C   UNL     1      -7.073  18.739  67.186  0.00  0.00    +0.054 A 
ATOM     37  C   UNL     1      -5.936  18.601  66.396  0.00  0.00    +0.005 A 
ATOM     38  C   UNL     1      -5.124  19.684  66.077  0.00  0.00    +0.000 A 
ATOM     39  C   UNL     1      -5.514  20.961  66.417  0.00  0.00    +0.000 A 
ATOM     40  C   UNL     1      -6.597  21.122  67.237  0.00  0.00    +0.000 A 
ATOM     41  C   UNL     1      -7.440  20.061  67.417  0.00  0.00    +0.005 A 
ENDBRANCH  33  36
ENDBRANCH  31  32
BRANCH   1  43
ATOM     42  C   UNL     1      -8.006  14.268  66.919  0.00  0.00    +0.174 C 
ATOM     43  O   UNL     1      -8.351  14.328  67.087  0.00  0.00    -0.347 OA
ENDBRANCH   1  43
TORSDOF 3
ENDMDL
MODEL 2
REMARK VINA RESULT:      -9.2      2.117      3.300
REMARK  Name = 
REMARK  3 active torsions:
REMARK  status: ('A' for Active; 'I' for Inactive)
REMARK    1  A    between atoms: O_2  and  C_3
REMARK    2  A    between atoms: C_4  and  N_5
REMARK    3  A    between atoms: C_7  and  C_9
REMARK                            x       y       z     vdW  Elec       q    Type
REMARK                         _______ _______ _______ _____ _____    ______ ____
ROOT
ATOM      1  C   UNL     1     -10.715  14.045  66.182  0.00  0.00    +0.178 C 
ATOM      2  C   UNL     1     -11.254  12.514  66.265  0.00  0.00    +0.192 C 
ATOM      3  N   UNL     1     -10.187  11.586  66.082  0.00  0.00    -0.305 N 
ATOM      4  C   UNL     1      -9.867  10.644  67.008  0.00  0.00    +0.077 A 
ATOM      5  C   UNL     1      -9.223   9.597  66.363  0.00  0.00    +0.017 A 
ATOM      6  C   UNL     1      -9.109   8.347  66.968  0.00  0.00    +0.005 A 
ATOM      7  C   UNL     1      -9.041   7.002  66.312  0.00  0.00    +0.142 C 
ATOM      8  N   UNL     1      -9.308   6.044  67.346  0.00  0.00    -0.197 NA
ATOM      9  C   UNL     1      -9.581   6.723  68.578  0.00  0.00    +0.265 C 
ATOM     10  O   UNL     1     -10.071   6.095  69.553  0.00  0.00    -0.268 OA
ATOM     11  C   UNL     1      -9.651   8.131  68.231  0.00  0.00    +0.054 A 
ATOM     12  C   UNL     1     -10.407   9.127  68.828  0.00  0.00    +0.023 A 
ATOM     13  C   UNL     1     -11.010   9.282  70.063  0.00  0.00    +0.017 A 
ATOM     14  C   UNL     1     -11.743  10.453  69.963  0.00  0.00    +0.062 A 
ATOM     15  N   UNL     1     -11.538  10.954  68.733  0.00  0.00    -0.304 N 
ATOM     16  C   UNL     1     -12.056  12.433  68.535  0.00  0.00    +0.208 C 
ATOM     17  C   UNL     1     -10.527  13.060  68.392  0.00  0.00    +0.076 C 
ATOM     18  C   UNL     1     -12.716  10.701  70.922  0.00  0.00    +0.017 A 
ATOM     19  C   UNL     1     -12.935   9.776  71.914  0.00  0.00    +0.001 A 
ATOM     20  C   UNL     1     -12.000   8.778  72.155  0.00  0.00    +0.000 A 
ATOM     21  C   UNL     1     -11.033   8.512  71.196  0.00  0.00    +0.001 A 
ATOM     22  C   UNL     1      -8.949  10.007  65.063  0.00  0.00    +0.017 A 
ATOM     23  C   UNL     1      -8.779   9.241  63.914  0.00  0.00    +0.001 A 
ATOM     24  C   UNL     1      -9.263   9.639  62.683  0.00  0.00    +0.000 A 
ATOM     25  C   UNL     1      -9.348  11.013  62.497  0.00  0.00    +0.001 A 
ATOM     26  C   UNL     1      -9.798  11.707  63.615  0.00  0.00    +0.017 A 
ATOM     27  C   UNL     1     -10.509  10.351  68.208  0.00  0.00    +0.078 A 
ATOM     28  C   UNL     1      -9.610  11.222  64.906  0.00  0.00    +0.062 A 
ATOM     29  C   UNL     1     -11.957  12.537  64.889  0.00  0.00    +0.057 C 
ATOM     30  O   UNL     1     -12.239  12.286  67.043  0.00  0.00    -0.319 OA
ATOM     31  C   UNL     1     -11.173  14.429  67.798  0.00  0.00    +0.111 C 
ENDROOT
BRANCH  31  32
ATOM     32  N   UNL     1      -9.961  15.358  68.107  0.00  0.00    -0.273 N 
ATOM     33  C   UNL     1     -10.273  16.699  67.684  0.00  0.00    +0.249 C 
ATOM     34  O   UNL     1     -11.248  17.012  66.981  0.00  0.00    -0.270 OA
ATOM     35  C   UNL     1      -9.397  15.353  69.453  0.00  0.00    +0.115 C 
BRANCH  33  36
ATOM     36  C   UNL     1      -9.430  17.827  68.121  0.00  0.00    +0.054 A 
ATOM     37  C   UNL     1      -8.149  17.853  67.577  0.00  0.00    +0.005 A 
ATOM     38  C   UNL     1      -7.518  19.043  67.232  0.00  0.00    +0.000 A 
ATOM     39  C   UNL     1      -8.214  20.231  67.284  0.00  0.00    +0.000 A 
ATOM     40  C   UNL     1      -9.454  20.244  67.863  0.00  0.00    +0.000 A 
ATOM     41  C   UNL     1     -10.089  19.051  68.064  0.00  0.00    +0.005 A 
ENDBRANCH  33  36
ENDBRANCH  31  32
BRANCH   1  43
ATOM     42  C   UNL     1      -9.024  13.904  66.270  0.00  0.00    +0.174 C 
ATOM     43  O   UNL     1      -9.274  13.721  66.503  0.00  0.00    -0.347 OA
ENDBRANCH   1  43
TORSDOF 3
ENDMDL
MODEL 3
REMARK VINA RESULT:      -8.5      2.355      3.526
REMARK  Name = 
REMARK  3 active torsions:
REMARK  status: ('A' for Active; 'I' for Inactive)
REMARK    1  A    between atoms: O_2  and  C_3
REMARK    2  A    between atoms: C_4  and  N_5
REMARK    3  A    between atoms: C_7  and  C_9
REMARK                            x       y       z     vdW  Elec       q    Type
REMARK                         _______ _______ _______ _____ _____    ______ ____
ROOT
ATOM      1  C   UNL     1      -9.900  12.945  66.152  0.00  0.00    +0.178 C 
ATOM      2  C   UNL     1     -10.320  11.401  66.438  0.00  0.00    +0.192 C 
ATOM      3  N   UNL     1      -9.180  10.617  66.788  0.00  0.00    -0.305 N 
ATOM      4  C   UNL     1      -9.090   9.938  67.962  0.00  0.00    +0.077 A 
ATOM      5  C   UNL     1      -8.202   8.885  67.791  0.00  0.00    +0.017 A 
ATOM      6  C   UNL     1      -8.184   7.813  68.680  0.00  0.00    +0.005 A 
ATOM      7  C   UNL     1      -7.816   6.387  68.406  0.00  0.00    +0.142 C 
ATOM      8  N   UNL     1      -8.314   5.630  69.518  0.00  0.00    -0.197 NA
ATOM      9  C   UNL     1      -9.003   6.497  70.427  0.00  0.00    +0.265 C 
ATOM     10  O   UNL     1      -9.720   6.017  71.343  0.00  0.00    -0.268 OA
ATOM     11  C   UNL     1      -9.070   7.781  69.752  0.00  0.00    +0.054 A 
ATOM     12  C   UNL     1     -10.046   8.759  69.860  0.00  0.00    +0.023 A 
ATOM     13  C   UNL     1     -11.010   9.073  70.801  0.00  0.00    +0.017 A 
ATOM     14  C   UNL     1     -11.762  10.082  70.225  0.00  0.00    +0.062 A 
ATOM     15  N   UNL     1     -11.229  10.348  69.021  0.00  0.00    -0.304 N 
ATOM     16  C   UNL     1     -11.772  11.667  68.343  0.00  0.00    +0.208 C 
ATOM     17  C   UNL     1     -10.325  12.464  68.493  0.00  0.00    +0.076 C 
ATOM     18  C   UNL     1     -12.999  10.378  70.784  0.00  0.00    +0.017 A 
ATOM     19  C   UNL     1     -13.441   9.651  71.862  0.00  0.00    +0.001 A 
ATOM     20  C   UNL     1     -12.552   8.866  72.586  0.00  0.00    +0.000 A 
ATOM     21  C   UNL     1     -11.320   8.553  72.030  0.00  0.00    +0.001 A 
ATOM     22  C   UNL     1      -7.574   9.059  66.562  0.00  0.00    +0.017 A 
ATOM     23  C   UNL     1      -7.002   8.109  65.721  0.00  0.00    +0.001 A 
ATOM     24  C   UNL     1      -7.112   8.176  64.347  0.00  0.00    +0.000 A 
ATOM     25  C   UNL     1      -7.241   9.458  63.826  0.00  0.00    +0.001 A 
ATOM     26  C   UNL     1      -8.063  10.291  64.575  0.00  0.00    +0.017 A 
ATOM     27  C   UNL     1     -10.046   9.805  68.966  0.00  0.00    +0.078 A 
ATOM     28  C   UNL     1      -8.245  10.110  65.943  0.00  0.00    +0.062 A 
ATOM     29  C   UNL     1     -10.565  11.044  64.955  0.00  0.00    +0.057 C 
ATOM     30  O   UNL     1     -11.476  11.196  66.937  0.00  0.00    -0.319 OA
ATOM     31  C   UNL     1     -10.859  13.578  67.435  0.00  0.00    +0.111 C 
ENDROOT
BRANCH  31  32
ATOM     32  N   UNL     1      -9.875  14.714  67.845  0.00  0.00    -0.273 N 
ATOM     33  C   UNL     1     -10.206  15.912  67.118  0.00  0.00    +0.249 C 
ATOM     34  O   UNL     1     -10.992  15.965  66.157  0.00  0.00    -0.270 OA
ATOM     35  C   UNL     1      -9.683  15.000  69.264  0.00  0.00    +0.115 C 
BRANCH  33  36
ATOM     36  C   UNL     1      -9.631  17.207  67.526  0.00  0.00    +0.054 A 
ATOM     37  C   UNL     1      -8.523  17.619  66.790  0.00  0.00    +0.005 A 
ATOM     38  C   UNL     1      -8.306  18.954  66.469  0.00  0.00    +0.000 A 
ATOM     39  C   UNL     1      -9.272  19.896  66.749  0.00  0.00    +0.000 A 
ATOM     40  C   UNL     1     -10.345  19.530  67.516  0.00  0.00    +0.000 A 
ATOM     41  C   UNL     1     -10.592  18.198  67.696  0.00  0.00    +0.005 A 
ENDBRANCH  33  36
ENDBRANCH  31  32
BRANCH   1  43
ATOM     42  C   UNL     1      -8.310  13.063  66.742  0.00  0.00    +0.174 C 
ATOM     43  O   UNL     1      -8.606  12.901  66.934  0.00  0.00    -0.347 OA
ENDBRANCH   1  43
TORSDOF 3
ENDMDL
MODEL 4
REMARK VINA RESULT:      -8.4      2.206      6.695
REMARK  Name = 
REMARK  3 active torsions:
REMARK  status: ('A' for Active; 'I' for Inactive)
REMARK    1  A    between atoms: O_2  and  C_3
REMARK    2  A    between atoms: C_4  and  N_5
REMARK    3  A    between atoms: C_7  and  C_9
REMARK                            x       y       z     vdW  Elec       q    Type
REMARK                         _______ _______ _______ _____ _____    ______ ____
ROOT
ATOM      1  C   UNL     1      -8.362  12.601  66.356  0.00  0.00    +0.178 C 
ATOM      2  C   UNL     1      -8.700  12.911  67.915  0.00  0.00    +0.192 C 
ATOM      3  N   UNL     1      -9.794  13.819  68.030  0.00  0.00    -0.305 N 
ATOM      4  C   UNL     1     -10.932  13.514  68.707  0.00  0.00    +0.077 A 
ATOM      5  C   UNL     1     -11.531  14.698  69.114  0.00  0.00    +0.017 A 
ATOM      6  C   UNL     1     -12.490  14.705  70.124  0.00  0.00    +0.005 A 
ATOM      7  C   UNL     1     -12.798  15.796  71.103  0.00  0.00    +0.142 C 
ATOM      8  N   UNL     1     -13.574  15.186  72.144  0.00  0.00    -0.197 NA
ATOM      9  C   UNL     1     -13.717  13.784  71.885  0.00  0.00    +0.265 C 
ATOM     10  O   UNL     1     -14.152  13.014  72.781  0.00  0.00    -0.268 OA
ATOM     11  C   UNL     1     -12.853  13.516  70.748  0.00  0.00    +0.054 A 
ATOM     12  C   UNL     1     -12.172  12.349  70.443  0.00  0.00    +0.023 A 
ATOM     13  C   UNL     1     -12.310  11.019  70.799  0.00  0.00    +0.017 A 
ATOM     14  C   UNL     1     -11.202  10.385  70.264  0.00  0.00    +0.062 A 
ATOM     15  N   UNL     1     -10.484  11.311  69.607  0.00  0.00    -0.304 N 
ATOM     16  C   UNL     1      -9.342  10.722  68.688  0.00  0.00    +0.208 C 
ATOM     17  C   UNL     1     -10.095  11.178  67.283  0.00  0.00    +0.076 C 
ATOM     18  C   UNL     1     -10.886   9.114  70.728  0.00  0.00    +0.017 A 
ATOM     19  C   UNL     1     -11.660   8.545  71.710  0.00  0.00    +0.001 A 
ATOM     20  C   UNL     1     -12.912   9.071  72.004  0.00  0.00    +0.000 A 
ATOM     21  C   UNL     1     -13.231  10.346  71.557  0.00  0.00    +0.001 A 
ATOM     22  C   UNL     1     -10.866  15.744  68.483  0.00  0.00    +0.017 A 
ATOM     23  C   UNL     1     -10.731  17.071  68.881  0.00  0.00    +0.001 A 
ATOM     24  C   UNL     1      -9.559  17.780  68.705  0.00  0.00    +0.000 A 
ATOM     25  C   UNL     1      -8.784  17.382  67.622  0.00  0.00    +0.001 A 
ATOM     26  C   UNL     1      -8.733  16.005  67.441  0.00  0.00    +0.017 A 
ATOM     27  C   UNL     1     -11.225  12.370  69.445  0.00  0.00    +0.078 A 
ATOM     28  C   UNL     1      -9.761  15.167  67.864  0.00  0.00    +0.062 A 
ATOM     29  C   UNL     1      -7.461  13.803  68.153  0.00  0.00    +0.057 C 
ATOM     30  O   UNL     1      -8.494  11.971  68.752  0.00  0.00    -0.319 OA
ATOM     31  C   UNL     1      -8.703  10.917  66.483  0.00  0.00    +0.111 C 
ENDROOT
BRANCH  31  32
ATOM     32  N   UNL     1      -9.327  10.757  65.065  0.00  0.00    -0.273 N 
ATOM     33  C   UNL     1      -8.381  10.096  64.203  0.00  0.00    +0.249 C 
ATOM     34  O   UNL     1      -7.186   9.899  64.481  0.00  0.00    -0.270 OA
ATOM     35  C   UNL     1     -10.652  10.156  64.944  0.00  0.00    +0.115 C 
BRANCH  33  36
ATOM     36  C   UNL     1      -8.817   9.558  62.902  0.00  0.00    +0.054 A 
ATOM     37  C   UNL     1      -8.593  10.394  61.812  0.00  0.00    +0.005 A 
ATOM     38  C   UNL     1      -8.219   9.900  60.567  0.00  0.00    +0.000 A 
ATOM     39  C   UNL     1      -7.913   8.564  60.420  0.00  0.00    +0.000 A 
ATOM     40  C   UNL     1      -8.175   7.711  61.458  0.00  0.00    +0.000 A 
ATOM     41  C   UNL     1      -8.410   8.244  62.694  0.00  0.00    +0.005 A 
ENDBRANCH  33  36
ENDBRANCH  31  32
BRANCH   1  43
ATOM     42  C   UNL     1      -9.698  13.237  65.519  0.00  0.00    +0.174 C 
ATOM     43  O   UNL     1      -9.721  12.994  65.820  0.00  0.00    -0.347 OA
ENDBRANCH   1  43
TORSDOF 3
ENDMDL
MODEL 5
REMARK VINA RESULT:      -7.7      3.359      8.545
REMARK  Name = 
REMARK  3 active torsions:
REMARK  status: ('A' for Active; 'I' for Inactive)
REMARK    1  A    between atoms: O_2  and  C_3
REMARK    2  A    between atoms: C_4  and  N_5
REMARK    3  A    between atoms: C_7  and  C_9
REMARK                            x       y       z     vdW  Elec       q    Type
REMARK                         _______ _______ _______ _____ _____    ______ ____
ROOT
ATOM      1  C   UNL     1      -9.305   9.628  66.625  0.00  0.00    +0.178 C 
ATOM      2  C   UNL     1      -8.788  11.032  65.991  0.00  0.00    +0.192 C 
ATOM      3  N   UNL     1      -9.775  12.052  66.135  0.00  0.00    -0.305 N 
ATOM      4  C   UNL     1      -9.534  13.218  66.790  0.00  0.00    +0.077 A 
ATOM      5  C   UNL     1     -10.412  14.180  66.309  0.00  0.00    +0.017 A 
ATOM      6  C   UNL     1     -10.168  15.536  66.513  0.00  0.00    +0.005 A 
ATOM      7  C   UNL     1     -10.562  16.690  65.643  0.00  0.00    +0.142 C 
ATOM      8  N   UNL     1      -9.769  17.803  66.079  0.00  0.00    -0.197 NA
ATOM      9  C   UNL     1      -8.884  17.387  67.126  0.00  0.00    +0.265 C 
ATOM     10  O   UNL     1      -7.938  18.134  67.491  0.00  0.00    -0.268 OA
ATOM     11  C   UNL     1      -9.028  15.944  67.198  0.00  0.00    +0.054 A 
ATOM     12  C   UNL     1      -8.082  15.003  67.569  0.00  0.00    +0.023 A 
ATOM     13  C   UNL     1      -6.909  15.039  68.303  0.00  0.00    +0.017 A 
ATOM     14  C   UNL     1      -6.360  13.775  68.168  0.00  0.00    +0.062 A 
ATOM     15  N   UNL     1      -7.201  13.047  67.415  0.00  0.00    -0.304 N 
ATOM     16  C   UNL     1      -6.888  11.499  67.397  0.00  0.00    +0.208 C 
ATOM     17  C   UNL     1      -8.261  11.106  68.242  0.00  0.00    +0.076 C 
ATOM     18  C   UNL     1      -5.026  13.600  68.514  0.00  0.00    +0.017 A 
ATOM     19  C   UNL     1      -4.297  14.679  68.950  0.00  0.00    +0.001 A 
ATOM     20  C   UNL     1      -4.943  15.842  69.351  0.00  0.00    +0.000 A 
ATOM     21  C   UNL     1      -6.271  16.032  68.997  0.00  0.00    +0.001 A 
ATOM     22  C   UNL     1     -11.348  13.534  65.509  0.00  0.00    +0.017 A 
ATOM     23  C   UNL     1     -12.101  14.035  64.452  0.00  0.00    +0.001 A 
ATOM     24  C   UNL     1     -12.362  13.297  63.315  0.00  0.00    +0.000 A 
ATOM     25  C   UNL     1     -12.406  11.921  63.500  0.00  0.00    +0.001 A 
ATOM     26  C   UNL     1     -11.433  11.437  64.368  0.00  0.00    +0.017 A 
ATOM     27  C   UNL     1      -8.343  13.670  67.352  0.00  0.00    +0.078 A 
ATOM     28  C   UNL     1     -10.890  12.225  65.378  0.00  0.00    +0.062 A 
ATOM     29  C   UNL     1      -8.938  10.586  64.519  0.00  0.00    +0.057 C 
ATOM     30  O   UNL     1      -7.537  11.272  66.051  0.00  0.00    -0.319 OA
ATOM     31  C   UNL     1      -8.053   9.553  67.807  0.00  0.00    +0.111 C 
ENDROOT
BRANCH  31  32
ATOM     32  N   UNL     1      -8.918   8.923  68.938  0.00  0.00    -0.273 N 
ATOM     33  C   UNL     1      -8.601   7.522  69.052  0.00  0.00    +0.249 C 
ATOM     34  O   UNL     1      -7.925   6.879  68.232  0.00  0.00    -0.270 OA
ATOM     35  C   UNL     1      -8.934   9.562  70.250  0.00  0.00    +0.115 C 
BRANCH  33  36
ATOM     36  C   UNL     1      -9.052   6.755  70.228  0.00  0.00    +0.054 A 
ATOM     37  C   UNL     1     -10.106   5.876  69.991  0.00  0.00    +0.005 A 
ATOM     38  C   UNL     1     -10.188   4.638  70.617  0.00  0.00    +0.000 A 
ATOM     39  C   UNL     1      -9.137   4.183  71.384  0.00  0.00    +0.000 A 
ATOM     40  C   UNL     1      -8.115   5.044  71.677  0.00  0.00    +0.000 A 
ATOM     41  C   UNL     1      -8.001   6.192  70.944  0.00  0.00    +0.005 A 
ENDBRANCH  33  36
ENDBRANCH  31  32
BRANCH   1  43
ATOM     42  C   UNL     1     -10.687  10.064  67.513  0.00  0.00    +0.174 C 
ATOM     43  O   UNL     1     -10.343  10.241  67.538  0.00  0.00    -0.347 OA
ENDBRANCH   1  43
TORSDOF 3
ENDMDL
MODEL 6
REMARK VINA RESULT:      -7.6      1.730      2.077
REMARK  Name = 
REMARK  3 active torsions:
REMARK  status: ('A' for Active; 'I' for Inactive)
REMARK    1  A    between atoms: O_2  and  C_3
REMARK    2  A    between atoms: C_4  and  N_5
REMARK    3  A    between atoms: C_7  and  C_9
REMARK                            x       y       z     vdW  Elec       q    Type
REMARK                         _______ _______ _______ _____ _____    ______ ____
ROOT
ATOM      1  C   UNL     1      -8.848  16.513  66.628  0.00  0.00    +0.178 C 
ATOM      2  C   UNL     1     -10.261  15.835  67.058  0.00  0.00    +0.192 C 
ATOM      3  N   UNL     1     -10.127  14.422  67.204  0.00  0.00    -0.305 N 
ATOM      4  C   UNL     1     -10.416  13.774  68.363  0.00  0.00    +0.077 A 
ATOM      5  C   UNL     1     -10.727  12.455  68.062  0.00  0.00    +0.017 A 
ATOM      6  C   UNL     1     -11.411  11.656  68.974  0.00  0.00    +0.005 A 
ATOM      7  C   UNL     1     -12.344  10.518  68.693  0.00  0.00    +0.142 C 
ATOM      8  N   UNL     1     -13.060  10.283  69.913  0.00  0.00    -0.197 NA
ATOM      9  C   UNL     1     -12.656  11.235  70.905  0.00  0.00    +0.265 C 
ATOM     10  O   UNL     1     -13.319  11.367  71.967  0.00  0.00    -0.268 OA
ATOM     11  C   UNL     1     -11.802  12.177  70.203  0.00  0.00    +0.054 A 
ATOM     12  C   UNL     1     -11.613  13.524  70.464  0.00  0.00    +0.023 A 
ATOM     13  C   UNL     1     -11.802  14.339  71.566  0.00  0.00    +0.017 A 
ATOM     14  C   UNL     1     -11.563  15.624  71.111  0.00  0.00    +0.062 A 
ATOM     15  N   UNL     1     -11.223  15.538  69.814  0.00  0.00    -0.304 N 
ATOM     16  C   UNL     1     -10.631  16.868  69.203  0.00  0.00    +0.208 C 
ATOM     17  C   UNL     1      -9.110  16.232  69.024  0.00  0.00    +0.076 C 
ATOM     18  C   UNL     1     -11.992  16.688  71.894  0.00  0.00    +0.017 A 
ATOM     19  C   UNL     1     -12.656  16.432  73.070  0.00  0.00    +0.001 A 
ATOM     20  C   UNL     1     -12.615  15.163  73.632  0.00  0.00    +0.000 A 
ATOM     21  C   UNL     1     -12.201  14.092  72.853  0.00  0.00    +0.001 A 
ATOM     22  C   UNL     1     -10.406  12.242  66.726  0.00  0.00    +0.017 A 
ATOM     23  C   UNL     1     -10.934  11.318  65.828  0.00  0.00    +0.001 A 
ATOM     24  C   UNL     1     -11.166  11.626  64.502  0.00  0.00    +0.000 A 
ATOM     25  C   UNL     1     -10.327  12.594  63.964  0.00  0.00    +0.001 A 
ATOM     26  C   UNL     1     -10.056  13.649  64.828  0.00  0.00    +0.017 A 
ATOM     27  C   UNL     1     -10.939  14.295  69.544  0.00  0.00    +0.078 A 
ATOM     28  C   UNL     1     -10.091  13.496  66.210  0.00  0.00    +0.062 A 
ATOM     29  C   UNL     1     -10.924  15.996  65.671  0.00  0.00    +0.057 C 
ATOM     30  O   UNL     1     -11.042  16.532  67.788  0.00  0.00    -0.319 OA
ATOM     31  C   UNL     1      -8.731  17.478  68.049  0.00  0.00    +0.111 C 
ENDROOT
BRANCH  31  32
ATOM     32  N   UNL     1      -7.185  17.376  68.204  0.00  0.00    -0.273 N 
ATOM     33  C   UNL     1      -6.584  18.616  67.783  0.00  0.00    +0.249 C 
ATOM     34  O   UNL     1      -7.180  19.524  67.180  0.00  0.00    -0.270 OA
ATOM     35  C   UNL     1      -6.634  16.937  69.482  0.00  0.00    +0.115 C 
BRANCH  33  36
ATOM     36  C   UNL     1      -5.172  18.898  68.099  0.00  0.00    +0.054 A 
ATOM     37  C   UNL     1      -4.282  18.711  67.045  0.00  0.00    +0.005 A 
ATOM     38  C   UNL     1      -3.184  19.542  66.851  0.00  0.00    +0.000 A 
ATOM     39  C   UNL     1      -3.033  20.675  67.621  0.00  0.00    +0.000 A 
ATOM     40  C   UNL     1      -3.861  20.855  68.696  0.00  0.00    +0.000 A 
ATOM     41  C   UNL     1      -4.998  20.101  68.775  0.00  0.00    +0.005 A 
ENDBRANCH  33  36
ENDBRANCH  31  32
BRANCH   1  43
ATOM     42  C   UNL     1      -7.701  15.284  66.879  0.00  0.00    +0.174 C 
ATOM     43  O   UNL     1      -7.975  15.387  67.134  0.00  0.00    -0.347 OA
ENDBRANCH   1  43
TORSDOF 3
ENDMDL
MODEL 7
REMARK VINA RESULT:      -7.4      4.136      7.550
REMARK  Name = 
REMARK  3 active torsions:
REMARK  status: ('A' for Active; 'I' for Inactive)
REMARK    1  A    between atoms: O_2  and  C_3
REMARK    2  A    between atoms: C_4  and  N_5
REMARK    3  A    between atoms: C_7  and  C_9
REMARK                            x       y       z     vdW  Elec       q    Type
REMARK                         _______ _______ _______ _____ _____    ______ ____
ROOT
ATOM      1  C   UNL     1      -8.738   7.089  67.185  0.00  0.00    +0.178 C 
ATOM      2  C   UNL     1     -10.185   7.732  67.549  0.00  0.00    +0.192 C 
ATOM      3  N   UNL     1     -10.228   8.160  68.909  0.00  0.00    -0.305 N 
ATOM      4  C   UNL     1     -10.498   9.443  69.266  0.00  0.00    +0.077 A 
ATOM      5  C   UNL     1     -11.006   9.440  70.558  0.00  0.00    +0.017 A 
ATOM      6  C   UNL     1     -11.708  10.537  71.052  0.00  0.00    +0.005 A 
ATOM      7  C   UNL     1     -12.805  10.552  72.073  0.00  0.00    +0.142 C 
ATOM      8  N   UNL     1     -13.437  11.834  71.955  0.00  0.00    -0.197 NA
ATOM      9  C   UNL     1     -12.826  12.581  70.896  0.00  0.00    +0.265 C 
ATOM     10  O   UNL     1     -13.372  13.629  70.461  0.00  0.00    -0.268 OA
ATOM     11  C   UNL     1     -11.919  11.651  70.247  0.00  0.00    +0.054 A 
ATOM     12  C   UNL     1     -11.531  11.615  68.918  0.00  0.00    +0.023 A 
ATOM     13  C   UNL     1     -11.515  12.533  67.883  0.00  0.00    +0.017 A 
ATOM     14  C   UNL     1     -11.147  11.808  66.762  0.00  0.00    +0.062 A 
ATOM     15  N   UNL     1     -10.936  10.540  67.152  0.00  0.00    -0.304 N 
ATOM     16  C   UNL     1     -10.228   9.633  66.070  0.00  0.00    +0.208 C 
ATOM     17  C   UNL     1      -8.825   9.503  66.946  0.00  0.00    +0.076 C 
ATOM     18  C   UNL     1     -11.363  12.378  65.513  0.00  0.00    +0.017 A 
ATOM     19  C   UNL     1     -11.950  13.617  65.431  0.00  0.00    +0.001 A 
ATOM     20  C   UNL     1     -12.029  14.427  66.557  0.00  0.00    +0.000 A 
ATOM     21  C   UNL     1     -11.830  13.864  67.809  0.00  0.00    +0.001 A 
ATOM     22  C   UNL     1     -10.833   8.161  71.076  0.00  0.00    +0.017 A 
ATOM     23  C   UNL     1     -11.555   7.507  72.070  0.00  0.00    +0.001 A 
ATOM     24  C   UNL     1     -11.858   6.162  71.999  0.00  0.00    +0.000 A 
ATOM     25  C   UNL     1     -10.948   5.387  71.291  0.00  0.00    +0.001 A 
ATOM     26  C   UNL     1     -10.466   5.996  70.138  0.00  0.00    +0.017 A 
ATOM     27  C   UNL     1     -10.844  10.518  68.451  0.00  0.00    +0.078 A 
ATOM     28  C   UNL     1     -10.400   7.380  70.008  0.00  0.00    +0.062 A 
ATOM     29  C   UNL     1     -10.938   6.382  67.569  0.00  0.00    +0.057 C 
ATOM     30  O   UNL     1     -10.800   8.345  66.615  0.00  0.00    -0.319 OA
ATOM     31  C   UNL     1      -8.371   8.270  65.986  0.00  0.00    +0.111 C 
ENDROOT
BRANCH  31  32
ATOM     32  N   UNL     1      -6.844   8.353  66.282  0.00  0.00    -0.273 N 
ATOM     33  C   UNL     1      -6.129   7.574  65.305  0.00  0.00    +0.249 C 
ATOM     34  O   UNL     1      -6.657   6.783  64.505  0.00  0.00    -0.270 OA
ATOM     35  C   UNL     1      -6.231   9.667  66.453  0.00  0.00    +0.115 C 
BRANCH  33  36
ATOM     36  C   UNL     1      -4.668   7.715  65.172  0.00  0.00    +0.054 A 
ATOM     37  C   UNL     1      -3.918   6.779  65.878  0.00  0.00    +0.005 A 
ATOM     38  C   UNL     1      -2.733   6.252  65.375  0.00  0.00    +0.000 A 
ATOM     39  C   UNL     1      -2.347   6.536  64.083  0.00  0.00    +0.000 A 
ATOM     40  C   UNL     1      -3.034   7.492  63.386  0.00  0.00    +0.000 A 
ATOM     41  C   UNL     1      -4.257   7.885  63.854  0.00  0.00    +0.005 A 
ENDBRANCH  33  36
ENDBRANCH  31  32
BRANCH   1  43
ATOM     42  C   UNL     1      -7.761   7.519  68.508  0.00  0.00    +0.174 C 
ATOM     43  O   UNL     1      -7.981   7.767  68.306  0.00  0.00    -0.347 OA
ENDBRANCH   1  43
TORSDOF 3
ENDMDL
MODEL 8
REMARK VINA RESULT:      -7.3      3.493      7.028
REMARK  Name = 
REMARK  3 active torsions:
REMARK  status: ('A' for Active; 'I' for Inactive)
REMARK    1  A    between atoms: O_2  and  C_3
REMARK    2  A    between atoms: C_4  and  N_5
REMARK    3  A    between atoms: C_7  and  C_9
REMARK                            x       y       z     vdW  Elec       q    Type
REMARK                         _______ _______ _______ _____ _____    ______ ____
ROOT
ATOM      1  C   UNL     1      -7.779  11.658  66.564  0.00  0.00    +0.178 C 
ATOM      2  C   UNL     1      -8.176  11.332  68.106  0.00  0.00    +0.192 C 
ATOM      3  N   UNL     1      -9.575  11.506  68.322  0.00  0.00    -0.305 N 
ATOM      4  C   UNL     1     -10.376  10.507  68.778  0.00  0.00    +0.077 A 
ATOM      5  C   UNL     1     -11.480  11.079  69.395  0.00  0.00    +0.017 A 
ATOM      6  C   UNL     1     -12.275  10.338  70.267  0.00  0.00    +0.005 A 
ATOM      7  C   UNL     1     -13.063  10.826  71.445  0.00  0.00    +0.142 C 
ATOM      8  N   UNL     1     -13.385   9.660  72.215  0.00  0.00    -0.197 NA
ATOM      9  C   UNL     1     -12.803   8.500  71.607  0.00  0.00    +0.265 C 
ATOM     10  O   UNL     1     -12.756   7.410  72.235  0.00  0.00    -0.268 OA
ATOM     11  C   UNL     1     -11.962   9.010  70.539  0.00  0.00    +0.054 A 
ATOM     12  C   UNL     1     -10.793   8.468  70.032  0.00  0.00    +0.023 A 
ATOM     13  C   UNL     1     -10.223   7.207  70.035  0.00  0.00    +0.017 A 
ATOM     14  C   UNL     1      -8.966   7.377  69.483  0.00  0.00    +0.062 A 
ATOM     15  N   UNL     1      -8.840   8.673  69.154  0.00  0.00    -0.304 N 
ATOM     16  C   UNL     1      -7.589   9.000  68.247  0.00  0.00    +0.208 C 
ATOM     17  C   UNL     1      -8.515   9.374  66.923  0.00  0.00    +0.076 C 
ATOM     18  C   UNL     1      -8.032   6.362  69.653  0.00  0.00    +0.017 A 
ATOM     19  C   UNL     1      -8.376   5.247  70.377  0.00  0.00    +0.001 A 
ATOM     20  C   UNL     1      -9.710   4.979  70.655  0.00  0.00    +0.000 A 
ATOM     21  C   UNL     1     -10.648   5.991  70.502  0.00  0.00    +0.001 A 
ATOM     22  C   UNL     1     -11.461  12.441  69.115  0.00  0.00    +0.017 A 
ATOM     23  C   UNL     1     -12.006  13.498  69.838  0.00  0.00    +0.001 A 
ATOM     24  C   UNL     1     -11.364  14.713  69.968  0.00  0.00    +0.000 A 
ATOM     25  C   UNL     1     -10.532  15.058  68.910  0.00  0.00    +0.001 A 
ATOM     26  C   UNL     1      -9.793  13.995  68.404  0.00  0.00    +0.017 A 
ATOM     27  C   UNL     1     -10.022   9.221  69.177  0.00  0.00    +0.078 A 
ATOM     28  C   UNL     1     -10.237  12.680  68.496  0.00  0.00    +0.062 A 
ATOM     29  C   UNL     1      -7.555  12.622  68.688  0.00  0.00    +0.057 C 
ATOM     30  O   UNL     1      -7.493  10.436  68.705  0.00  0.00    -0.319 OA
ATOM     31  C   UNL     1      -7.212  10.065  66.238  0.00  0.00    +0.111 C 
ENDROOT
BRANCH  31  32
ATOM     32  N   UNL     1      -7.715   9.997  64.766  0.00  0.00    -0.273 N 
ATOM     33  C   UNL     1      -6.603  10.209  63.876  0.00  0.00    +0.249 C 
ATOM     34  O   UNL     1      -5.479  10.609  64.226  0.00  0.00    -0.270 OA
ATOM     35  C   UNL     1      -8.508   8.847  64.345  0.00  0.00    +0.115 C 
BRANCH  33  36
ATOM     36  C   UNL     1      -6.737   9.907  62.439  0.00  0.00    +0.054 A 
ATOM     37  C   UNL     1      -6.866  11.019  61.611  0.00  0.00    +0.005 A 
ATOM     38  C   UNL     1      -6.289  11.068  60.347  0.00  0.00    +0.000 A 
ATOM     39  C   UNL     1      -5.440  10.063  59.938  0.00  0.00    +0.000 A 
ATOM     40  C   UNL     1      -5.336   8.936  60.707  0.00  0.00    +0.000 A 
ATOM     41  C   UNL     1      -5.804   8.978  61.990  0.00  0.00    +0.005 A 
ENDBRANCH  33  36
ENDBRANCH  31  32
BRANCH   1  43
ATOM     42  C   UNL     1      -9.280  11.739  65.771  0.00  0.00    +0.174 C 
ATOM     43  O   UNL     1      -9.166  11.447  65.999  0.00  0.00    -0.347 OA
ENDBRANCH   1  43
TORSDOF 3
ENDMDL
MODEL 9
REMARK VINA RESULT:      -7.3      4.937     10.904
REMARK  Name = 
REMARK  3 active torsions:
REMARK  status: ('A' for Active; 'I' for Inactive)
REMARK    1  A    between atoms: O_2  and  C_3
REMARK    2  A    between atoms: C_4  and  N_5
REMARK    3  A    between atoms: C_7  and  C_9
REMARK                            x       y       z     vdW  Elec       q    Type
REMARK                         _______ _______ _______ _____ _____    ______ ____
ROOT
ATOM      1  C   UNL     1     -10.966   6.661  72.108  0.00  0.00    +0.178 C 
ATOM      2  C   UNL     1     -11.514   7.093  70.640  0.00  0.00    +0.192 C 
ATOM      3  N   UNL     1     -11.000   8.367  70.257  0.00  0.00    -0.305 N 
ATOM      4  C   UNL     1     -10.273   8.553  69.124  0.00  0.00    +0.077 A 
ATOM      5  C   UNL     1     -10.395   9.882  68.740  0.00  0.00    +0.017 A 
ATOM      6  C   UNL     1     -10.077  10.283  67.444  0.00  0.00    +0.005 A 
ATOM      7  C   UNL     1     -10.664  11.413  66.653  0.00  0.00    +0.142 C 
ATOM      8  N   UNL     1     -10.289  11.176  65.289  0.00  0.00    -0.197 NA
ATOM      9  C   UNL     1      -9.553   9.951  65.193  0.00  0.00    +0.265 C 
ATOM     10  O   UNL     1      -9.332   9.429  64.068  0.00  0.00    -0.268 OA
ATOM     11  C   UNL     1      -9.641   9.348  66.511  0.00  0.00    +0.054 A 
ATOM     12  C   UNL     1      -9.639   8.003  66.843  0.00  0.00    +0.023 A 
ATOM     13  C   UNL     1      -9.213   6.846  66.215  0.00  0.00    +0.017 A 
ATOM     14  C   UNL     1      -9.644   5.814  67.030  0.00  0.00    +0.062 A 
ATOM     15  N   UNL     1     -10.261   6.364  68.089  0.00  0.00    -0.304 N 
ATOM     16  C   UNL     1     -10.561   5.356  69.268  0.00  0.00    +0.208 C 
ATOM     17  C   UNL     1      -9.469   6.069  70.293  0.00  0.00    +0.076 C 
ATOM     18  C   UNL     1      -9.659   4.527  66.506  0.00  0.00    +0.017 A 
ATOM     19  C   UNL     1      -9.273   4.328  65.203  0.00  0.00    +0.001 A 
ATOM     20  C   UNL     1      -8.576   5.318  64.522  0.00  0.00    +0.000 A 
ATOM     21  C   UNL     1      -8.568   6.609  65.030  0.00  0.00    +0.001 A 
ATOM     22  C   UNL     1     -11.023  10.564  69.775  0.00  0.00    +0.017 A 
ATOM     23  C   UNL     1     -11.789  11.725  69.731  0.00  0.00    +0.001 A 
ATOM     24  C   UNL     1     -12.917  11.896  70.508  0.00  0.00    +0.000 A 
ATOM     25  C   UNL     1     -12.912  11.212  71.718  0.00  0.00    +0.001 A 
ATOM     26  C   UNL     1     -12.378   9.930  71.637  0.00  0.00    +0.017 A 
ATOM     27  C   UNL     1      -9.962   7.631  68.128  0.00  0.00    +0.078 A 
ATOM     28  C   UNL     1     -11.434   9.584  70.675  0.00  0.00    +0.062 A 
ATOM     29  C   UNL     1     -12.951   7.407  71.112  0.00  0.00    +0.057 C 
ATOM     30  O   UNL     1     -11.727   6.155  69.801  0.00  0.00    -0.319 OA
ATOM     31  C   UNL     1     -10.144   5.261  71.533  0.00  0.00    +0.111 C 
ENDROOT
BRANCH  31  32
ATOM     32  N   UNL     1      -8.931   5.358  72.505  0.00  0.00    -0.273 N 
ATOM     33  C   UNL     1      -9.129   4.447  73.602  0.00  0.00    +0.249 C 
ATOM     34  O   UNL     1     -10.194   3.857  73.850  0.00  0.00    -0.270 OA
ATOM     35  C   UNL     1      -7.582   5.234  71.960  0.00  0.00    +0.115 C 
BRANCH  33  36
ATOM     36  C   UNL     1      -8.010   4.121  74.505  0.00  0.00    +0.054 A 
ATOM     37  C   UNL     1      -7.949   4.884  75.668  0.00  0.00    +0.005 A 
ATOM     38  C   UNL     1      -7.547   4.343  76.884  0.00  0.00    +0.000 A 
ATOM     39  C   UNL     1      -7.341   2.985  76.999  0.00  0.00    +0.000 A 
ATOM     40  C   UNL     1      -7.342   2.221  75.864  0.00  0.00    +0.000 A 
ATOM     41  C   UNL     1      -7.867   2.755  74.721  0.00  0.00    +0.005 A 
ENDBRANCH  33  36
ENDBRANCH  31  32
BRANCH   1  43
ATOM     42  C   UNL     1      -9.734   7.792  72.411  0.00  0.00    +0.174 C 
ATOM     43  O   UNL     1      -9.755   7.567  72.096  0.00  0.00    -0.347 OA
ENDBRANCH   1  43
TORSDOF 3
ENDMDL
