MODEL 1
REMARK VINA RESULT:      -3.3      0.000      0.000
REMARK  Name = 
REMARK  1 active torsions:
REMARK  status: ('A' for Active; 'I' for Inactive)
REMARK    1  A    between atoms: C_2  and  C_4
REMARK                            x       y       z     vdW  Elec       q    Type
REMARK                         _______ _______ _______ _____ _____    ______ ____
ROOT
ATOM      1  O   UNL     1     -12.501  14.026  63.322  0.00  0.00    -0.243 OA
ATOM      2  C   UNL     1     -12.187  14.260  64.528  0.00  0.00    +0.398 C 
ATOM      3  O   UNL     1     -13.228  14.109  65.449  0.00  0.00    -0.243 OA
ENDROOT
BRANCH   2   4
ATOM      4  C   UNL     1     -11.255  15.415  64.722  0.00  0.00    +0.295 C 
ATOM      5  O   UNL     1     -11.669  16.483  63.908  0.00  0.00    -0.207 OA
ENDBRANCH   2   4
TORSDOF 1
ENDMDL
MODEL 2
REMARK VINA RESULT:      -3.3     11.434     12.390
REMARK  Name = 
REMARK  1 active torsions:
REMARK  status: ('A' for Active; 'I' for Inactive)
REMARK    1  A    between atoms: C_2  and  C_4
REMARK                            x       y       z     vdW  Elec       q    Type
REMARK                         _______ _______ _______ _____ _____    ______ ____
ROOT
ATOM      1  O   UNL     1      -3.343  20.202  72.539  0.00  0.00    -0.243 OA
ATOM      2  C   UNL     1      -4.250  20.798  71.883  0.00  0.00    +0.398 C 
ATOM      3  O   UNL     1      -4.452  22.135  72.238  0.00  0.00    -0.243 OA
ENDROOT
BRANCH   2   4
ATOM      4  C   UNL     1      -5.463  19.970  71.594  0.00  0.00    +0.295 C 
ATOM      5  O   UNL     1      -5.225  18.646  72.003  0.00  0.00    -0.207 OA
ENDBRANCH   2   4
TORSDOF 1
ENDMDL
MODEL 3
REMARK VINA RESULT:      -3.2      8.542      9.107
REMARK  Name = 
REMARK  1 active torsions:
REMARK  status: ('A' for Active; 'I' for Inactive)
REMARK    1  A    between atoms: C_2  and  C_4
REMARK                            x       y       z     vdW  Elec       q    Type
REMARK                         _______ _______ _______ _____ _____    ______ ____
ROOT
ATOM      1  O   UNL     1     -14.190  15.966  72.582  0.00  0.00    -0.243 OA
ATOM      2  C   UNL     1     -13.387  15.006  72.790  0.00  0.00    +0.398 C 
ATOM      3  O   UNL     1     -13.951  13.731  72.686  0.00  0.00    -0.243 OA
ENDROOT
BRANCH   2   4
ATOM      4  C   UNL     1     -12.405  15.239  73.896  0.00  0.00    +0.295 C 
ATOM      5  O   UNL     1     -12.686  16.472  74.511  0.00  0.00    -0.207 OA
ENDBRANCH   2   4
TORSDOF 1
ENDMDL
MODEL 4
REMARK VINA RESULT:      -3.1      1.138      2.604
REMARK  Name = 
REMARK  1 active torsions:
REMARK  status: ('A' for Active; 'I' for Inactive)
REMARK    1  A    between atoms: C_2  and  C_4
REMARK                            x       y       z     vdW  Elec       q    Type
REMARK                         _______ _______ _______ _____ _____    ______ ____
ROOT
ATOM      1  O   UNL     1     -11.554  16.639  63.919  0.00  0.00    -0.243 OA
ATOM      2  C   UNL     1     -11.163  15.907  64.878  0.00  0.00    +0.398 C 
ATOM      3  O   UNL     1      -9.853  16.143  65.304  0.00  0.00    -0.243 OA
ENDROOT
BRANCH   2   4
ATOM      4  C   UNL     1     -11.621  14.483  64.808  0.00  0.00    +0.295 C 
ATOM      5  O   UNL     1     -12.595  14.361  63.801  0.00  0.00    -0.207 OA
ENDBRANCH   2   4
TORSDOF 1
ENDMDL
MODEL 5
REMARK VINA RESULT:      -3.1      8.496      9.180
REMARK  Name = 
REMARK  1 active torsions:
REMARK  status: ('A' for Active; 'I' for Inactive)
REMARK    1  A    between atoms: C_2  and  C_4
REMARK                            x       y       z     vdW  Elec       q    Type
REMARK                         _______ _______ _______ _____ _____    ______ ____
ROOT
ATOM      1  O   UNL     1     -12.090  16.247  72.049  0.00  0.00    -0.243 OA
ATOM      2  C   UNL     1     -12.921  15.636  72.787  0.00  0.00    +0.398 C 
ATOM      3  O   UNL     1     -14.252  16.037  72.635  0.00  0.00    -0.243 OA
ENDROOT
BRANCH   2   4
ATOM      4  C   UNL     1     -12.439  15.355  74.176  0.00  0.00    +0.295 C 
ATOM      5  O   UNL     1     -12.503  16.537  74.935  0.00  0.00    -0.207 OA
ENDBRANCH   2   4
TORSDOF 1
ENDMDL
MODEL 6
REMARK VINA RESULT:      -3.0      1.686      1.974
REMARK  Name = 
REMARK  1 active torsions:
REMARK  status: ('A' for Active; 'I' for Inactive)
REMARK    1  A    between atoms: C_2  and  C_4
REMARK                            x       y       z     vdW  Elec       q    Type
REMARK                         _______ _______ _______ _____ _____    ______ ____
ROOT
ATOM      1  O   UNL     1     -13.279  12.368  64.472  0.00  0.00    -0.243 OA
ATOM      2  C   UNL     1     -12.307  12.780  65.174  0.00  0.00    +0.398 C 
ATOM      3  O   UNL     1     -12.122  12.101  66.382  0.00  0.00    -0.243 OA
ENDROOT
BRANCH   2   4
ATOM      4  C   UNL     1     -12.122  14.266  65.181  0.00  0.00    +0.295 C 
ATOM      5  O   UNL     1     -12.635  14.799  63.985  0.00  0.00    -0.207 OA
ENDBRANCH   2   4
TORSDOF 1
ENDMDL
MODEL 7
REMARK VINA RESULT:      -3.0      7.629      8.333
REMARK  Name = 
REMARK  1 active torsions:
REMARK  status: ('A' for Active; 'I' for Inactive)
REMARK    1  A    between atoms: C_2  and  C_4
REMARK                            x       y       z     vdW  Elec       q    Type
REMARK                         _______ _______ _______ _____ _____    ______ ____
ROOT
ATOM      1  O   UNL     1     -14.372  15.996  72.577  0.00  0.00    -0.243 OA
ATOM      2  C   UNL     1     -13.172  15.803  72.942  0.00  0.00    +0.398 C 
ATOM      3  O   UNL     1     -12.847  16.326  74.197  0.00  0.00    -0.243 OA
ENDROOT
BRANCH   2   4
ATOM      4  C   UNL     1     -12.154  15.938  71.852  0.00  0.00    +0.295 C 
ATOM      5  O   UNL     1     -12.813  16.002  70.612  0.00  0.00    -0.207 OA
ENDBRANCH   2   4
TORSDOF 1
ENDMDL
MODEL 8
REMARK VINA RESULT:      -2.9     15.442     16.007
REMARK  Name = 
REMARK  1 active torsions:
REMARK  status: ('A' for Active; 'I' for Inactive)
REMARK    1  A    between atoms: C_2  and  C_4
REMARK                            x       y       z     vdW  Elec       q    Type
REMARK                         _______ _______ _______ _____ _____    ______ ____
ROOT
ATOM      1  O   UNL     1      -7.193  26.062  75.191  0.00  0.00    -0.243 OA
ATOM      2  C   UNL     1      -6.403  25.071  75.241  0.00  0.00    +0.398 C 
ATOM      3  O   UNL     1      -6.369  24.407  76.471  0.00  0.00    -0.243 OA
ENDROOT
BRANCH   2   4
ATOM      4  C   UNL     1      -5.104  25.265  74.524  0.00  0.00    +0.295 C 
ATOM      5  O   UNL     1      -5.202  24.713  73.235  0.00  0.00    -0.207 OA
ENDBRANCH   2   4
TORSDOF 1
ENDMDL
MODEL 9
REMARK VINA RESULT:      -2.9      1.177      2.350
REMARK  Name = 
REMARK  1 active torsions:
REMARK  status: ('A' for Active; 'I' for Inactive)
REMARK    1  A    between atoms: C_2  and  C_4
REMARK                            x       y       z     vdW  Elec       q    Type
REMARK                         _______ _______ _______ _____ _____    ______ ____
ROOT
ATOM      1  O   UNL     1     -11.340  16.800  64.207  0.00  0.00    -0.243 OA
ATOM      2  C   UNL     1     -11.430  15.566  64.483  0.00  0.00    +0.398 C 
ATOM      3  O   UNL     1     -12.591  14.940  64.019  0.00  0.00    -0.243 OA
ENDROOT
BRANCH   2   4
ATOM      4  C   UNL     1     -10.941  15.189  65.847  0.00  0.00    +0.295 C 
ATOM      5  O   UNL     1     -11.943  14.461  66.512  0.00  0.00    -0.207 OA
ENDBRANCH   2   4
TORSDOF 1
ENDMDL
