MODEL 1
REMARK VINA RESULT:      -5.1      0.000      0.000
REMARK  Name = 
REMARK  8 active torsions:
REMARK  status: ('A' for Active; 'I' for Inactive)
REMARK    1  A    between atoms: N_2  and  O_4
REMARK    2  A    between atoms: O_4  and  C_5
REMARK    3  A    between atoms: C_5  and  C_6
REMARK    4  A    between atoms: C_6  and  C_7
REMARK    5  A    between atoms: C_6  and  O_12
REMARK    6  A    between atoms: C_7  and  O_8
REMARK    7  A    between atoms: O_8  and  N_9
REMARK    8  A    between atoms: O_12  and  N_13
REMARK                            x       y       z     vdW  Elec       q    Type
REMARK                         _______ _______ _______ _____ _____    ______ ____
ROOT
ATOM      1  C   UNL     1     -11.792  14.228  66.369  0.00  0.00    +0.351 C 
ENDROOT
BRANCH   1   2
ATOM      2  C   UNL     1     -11.473  12.774  66.183  0.00  0.00    +0.351 C 
BRANCH   2   3
ATOM      3  O   UNL     1     -12.409  12.102  65.354  0.00  0.00    -0.196 OA
BRANCH   3   5
ATOM      4  O   UNL     1     -12.940  12.034  63.174  0.00  0.00    +0.093 OA
ATOM      5  N   UNL     1     -12.029  11.939  64.033  0.00  0.00    +0.285 N 
ATOM      6  O   UNL     1     -10.784  12.390  63.633  0.00  0.00    -0.534 OA
ENDBRANCH   3   5
ENDBRANCH   2   3
ENDBRANCH   1   2
BRANCH   1   7
ATOM      7  C   UNL     1     -11.767  14.671  67.810  0.00  0.00    +0.351 C 
BRANCH   7   8
ATOM      8  O   UNL     1     -10.700  15.584  67.954  0.00  0.00    -0.196 OA
BRANCH   8   9
ATOM      9  N   UNL     1     -10.894  16.772  68.620  0.00  0.00    +0.285 N 
ATOM     10  O   UNL     1     -10.922  17.975  67.947  0.00  0.00    -0.534 OA
ATOM     11  O   UNL     1     -11.297  16.687  69.809  0.00  0.00    +0.093 OA
ENDBRANCH   8   9
ENDBRANCH   7   8
ENDBRANCH   1   7
BRANCH   1  12
ATOM     12  O   UNL     1     -11.028  15.087  65.569  0.00  0.00    -0.196 OA
BRANCH  12  13
ATOM     13  N   UNL     1     -11.466  15.760  64.470  0.00  0.00    +0.285 N 
ATOM     14  O   UNL     1     -12.652  15.294  63.924  0.00  0.00    -0.534 OA
ATOM     15  O   UNL     1     -11.277  16.991  64.292  0.00  0.00    +0.093 OA
ENDBRANCH  12  13
ENDBRANCH   1  12
TORSDOF 8
ENDMDL
MODEL 2
REMARK VINA RESULT:      -5.1      4.412      7.392
REMARK  Name = 
REMARK  8 active torsions:
REMARK  status: ('A' for Active; 'I' for Inactive)
REMARK    1  A    between atoms: N_2  and  O_4
REMARK    2  A    between atoms: O_4  and  C_5
REMARK    3  A    between atoms: C_5  and  C_6
REMARK    4  A    between atoms: C_6  and  C_7
REMARK    5  A    between atoms: C_6  and  O_12
REMARK    6  A    between atoms: C_7  and  O_8
REMARK    7  A    between atoms: O_8  and  N_9
REMARK    8  A    between atoms: O_12  and  N_13
REMARK                            x       y       z     vdW  Elec       q    Type
REMARK                         _______ _______ _______ _____ _____    ______ ____
ROOT
ATOM      1  C   UNL     1     -12.373  15.541  70.753  0.00  0.00    +0.351 C 
ENDROOT
BRANCH   1   2
ATOM      2  C   UNL     1     -11.565  15.580  72.015  0.00  0.00    +0.351 C 
BRANCH   2   3
ATOM      3  O   UNL     1     -12.004  16.578  72.925  0.00  0.00    -0.196 OA
BRANCH   3   5
ATOM      4  O   UNL     1     -12.291  14.891  74.377  0.00  0.00    +0.093 OA
ATOM      5  N   UNL     1     -12.454  16.115  74.149  0.00  0.00    +0.285 N 
ATOM      6  O   UNL     1     -12.366  16.943  75.252  0.00  0.00    -0.534 OA
ENDBRANCH   3   5
ENDBRANCH   2   3
ENDBRANCH   1   2
BRANCH   1   7
ATOM      7  C   UNL     1     -11.537  15.411  69.505  0.00  0.00    +0.351 C 
BRANCH   7   8
ATOM      8  O   UNL     1     -11.712  16.593  68.753  0.00  0.00    -0.196 OA
BRANCH   8   9
ATOM      9  N   UNL     1     -10.632  17.396  68.468  0.00  0.00    +0.285 N 
ATOM     10  O   UNL     1      -9.340  16.945  68.634  0.00  0.00    -0.534 OA
ATOM     11  O   UNL     1     -10.871  18.445  67.814  0.00  0.00    +0.093 OA
ENDBRANCH   8   9
ENDBRANCH   7   8
ENDBRANCH   1   7
BRANCH   1  12
ATOM     12  O   UNL     1     -13.402  14.591  70.763  0.00  0.00    -0.196 OA
BRANCH  12  13
ATOM     13  N   UNL     1     -14.384  14.483  71.701  0.00  0.00    +0.285 N 
ATOM     14  O   UNL     1     -15.606  15.032  71.345  0.00  0.00    -0.534 OA
ATOM     15  O   UNL     1     -14.477  13.511  72.494  0.00  0.00    +0.093 OA
ENDBRANCH  12  13
ENDBRANCH   1  12
TORSDOF 8
ENDMDL
MODEL 3
REMARK VINA RESULT:      -5.0      1.194      4.966
REMARK  Name = 
REMARK  8 active torsions:
REMARK  status: ('A' for Active; 'I' for Inactive)
REMARK    1  A    between atoms: N_2  and  O_4
REMARK    2  A    between atoms: O_4  and  C_5
REMARK    3  A    between atoms: C_5  and  C_6
REMARK    4  A    between atoms: C_6  and  C_7
REMARK    5  A    between atoms: C_6  and  O_12
REMARK    6  A    between atoms: C_7  and  O_8
REMARK    7  A    between atoms: O_8  and  N_9
REMARK    8  A    between atoms: O_12  and  N_13
REMARK                            x       y       z     vdW  Elec       q    Type
REMARK                         _______ _______ _______ _____ _____    ______ ____
ROOT
ATOM      1  C   UNL     1     -11.379  14.761  66.604  0.00  0.00    +0.351 C 
ENDROOT
BRANCH   1   2
ATOM      2  C   UNL     1      -9.996  14.772  66.025  0.00  0.00    +0.351 C 
BRANCH   2   3
ATOM      3  O   UNL     1      -9.718  15.945  65.274  0.00  0.00    -0.196 OA
BRANCH   3   5
ATOM      4  O   UNL     1     -10.669  17.968  65.478  0.00  0.00    +0.093 OA
ATOM      5  N   UNL     1     -10.794  16.790  65.063  0.00  0.00    +0.285 N 
ATOM      6  O   UNL     1     -11.550  16.639  63.915  0.00  0.00    -0.534 OA
ENDBRANCH   3   5
ENDBRANCH   2   3
ENDBRANCH   1   2
BRANCH   1   7
ATOM      7  C   UNL     1     -12.194  13.560  66.195  0.00  0.00    +0.351 C 
BRANCH   7   8
ATOM      8  O   UNL     1     -12.601  13.758  64.858  0.00  0.00    -0.196 OA
BRANCH   8   9
ATOM      9  N   UNL     1     -12.263  12.842  63.890  0.00  0.00    +0.285 N 
ATOM     10  O   UNL     1     -10.945  12.597  63.566  0.00  0.00    -0.534 OA
ATOM     11  O   UNL     1     -13.177  12.066  63.510  0.00  0.00    +0.093 OA
ENDBRANCH   8   9
ENDBRANCH   7   8
ENDBRANCH   1   7
BRANCH   1  12
ATOM     12  O   UNL     1     -11.419  14.942  67.992  0.00  0.00    -0.196 OA
BRANCH  12  13
ATOM     13  N   UNL     1     -11.729  16.098  68.642  0.00  0.00    +0.285 N 
ATOM     14  O   UNL     1     -12.392  15.939  69.849  0.00  0.00    -0.534 OA
ATOM     15  O   UNL     1     -11.016  17.132  68.589  0.00  0.00    +0.093 OA
ENDBRANCH  12  13
ENDBRANCH   1  12
TORSDOF 8
ENDMDL
MODEL 4
REMARK VINA RESULT:      -5.0      0.938      1.672
REMARK  Name = 
REMARK  8 active torsions:
REMARK  status: ('A' for Active; 'I' for Inactive)
REMARK    1  A    between atoms: N_2  and  O_4
REMARK    2  A    between atoms: O_4  and  C_5
REMARK    3  A    between atoms: C_5  and  C_6
REMARK    4  A    between atoms: C_6  and  C_7
REMARK    5  A    between atoms: C_6  and  O_12
REMARK    6  A    between atoms: C_7  and  O_8
REMARK    7  A    between atoms: O_8  and  N_9
REMARK    8  A    between atoms: O_12  and  N_13
REMARK                            x       y       z     vdW  Elec       q    Type
REMARK                         _______ _______ _______ _____ _____    ______ ____
ROOT
ATOM      1  C   UNL     1     -11.646  14.457  66.390  0.00  0.00    +0.351 C 
ENDROOT
BRANCH   1   2
ATOM      2  C   UNL     1     -12.283  13.259  65.751  0.00  0.00    +0.351 C 
BRANCH   2   3
ATOM      3  O   UNL     1     -12.784  13.525  64.449  0.00  0.00    -0.196 OA
BRANCH   3   5
ATOM      4  O   UNL     1     -11.069  12.493  63.435  0.00  0.00    +0.093 OA
ATOM      5  N   UNL     1     -12.307  12.701  63.445  0.00  0.00    +0.285 N 
ATOM      6  O   UNL     1     -13.093  11.649  63.011  0.00  0.00    -0.534 OA
ENDBRANCH   3   5
ENDBRANCH   2   3
ENDBRANCH   1   2
BRANCH   1   7
ATOM      7  C   UNL     1     -10.970  14.152  67.702  0.00  0.00    +0.351 C 
BRANCH   7   8
ATOM      8  O   UNL     1     -10.428  15.361  68.191  0.00  0.00    -0.196 OA
BRANCH   8   9
ATOM      9  N   UNL     1     -11.257  16.332  68.701  0.00  0.00    +0.285 N 
ATOM     10  O   UNL     1     -12.257  16.023  69.598  0.00  0.00    -0.534 OA
ATOM     11  O   UNL     1     -10.900  17.525  68.518  0.00  0.00    +0.093 OA
ENDBRANCH   8   9
ENDBRANCH   7   8
ENDBRANCH   1   7
BRANCH   1  12
ATOM     12  O   UNL     1     -10.789  15.169  65.541  0.00  0.00    -0.196 OA
BRANCH  12  13
ATOM     13  N   UNL     1     -11.013  16.414  65.037  0.00  0.00    +0.285 N 
ATOM     14  O   UNL     1     -10.082  17.375  65.399  0.00  0.00    -0.534 OA
ATOM     15  O   UNL     1     -11.541  16.620  63.914  0.00  0.00    +0.093 OA
ENDBRANCH  12  13
ENDBRANCH   1  12
TORSDOF 8
ENDMDL
MODEL 5
REMARK VINA RESULT:      -4.9      3.965      7.560
REMARK  Name = 
REMARK  8 active torsions:
REMARK  status: ('A' for Active; 'I' for Inactive)
REMARK    1  A    between atoms: N_2  and  O_4
REMARK    2  A    between atoms: O_4  and  C_5
REMARK    3  A    between atoms: C_5  and  C_6
REMARK    4  A    between atoms: C_6  and  C_7
REMARK    5  A    between atoms: C_6  and  O_12
REMARK    6  A    between atoms: C_7  and  O_8
REMARK    7  A    between atoms: O_8  and  N_9
REMARK    8  A    between atoms: O_12  and  N_13
REMARK                            x       y       z     vdW  Elec       q    Type
REMARK                         _______ _______ _______ _____ _____    ______ ____
ROOT
ATOM      1  C   UNL     1     -12.313  15.506  70.669  0.00  0.00    +0.351 C 
ENDROOT
BRANCH   1   2
ATOM      2  C   UNL     1     -11.560  15.483  71.965  0.00  0.00    +0.351 C 
BRANCH   2   3
ATOM      3  O   UNL     1     -11.983  16.492  72.871  0.00  0.00    -0.196 OA
BRANCH   3   5
ATOM      4  O   UNL     1     -12.265  14.824  74.346  0.00  0.00    +0.093 OA
ATOM      5  N   UNL     1     -12.443  16.042  74.096  0.00  0.00    +0.285 N 
ATOM      6  O   UNL     1     -12.383  16.890  75.187  0.00  0.00    -0.534 OA
ENDBRANCH   3   5
ENDBRANCH   2   3
ENDBRANCH   1   2
BRANCH   1   7
ATOM      7  C   UNL     1     -11.439  15.285  69.460  0.00  0.00    +0.351 C 
BRANCH   7   8
ATOM      8  O   UNL     1     -11.426  13.899  69.194  0.00  0.00    -0.196 OA
BRANCH   8   9
ATOM      9  N   UNL     1     -11.803  13.430  67.957  0.00  0.00    +0.285 N 
ATOM     10  O   UNL     1     -12.026  12.087  67.737  0.00  0.00    -0.534 OA
ATOM     11  O   UNL     1     -12.182  14.292  67.123  0.00  0.00    +0.093 OA
ENDBRANCH   8   9
ENDBRANCH   7   8
ENDBRANCH   1   7
BRANCH   1  12
ATOM     12  O   UNL     1     -13.427  14.657  70.641  0.00  0.00    -0.196 OA
BRANCH  12  13
ATOM     13  N   UNL     1     -14.496  14.709  71.483  0.00  0.00    +0.285 N 
ATOM     14  O   UNL     1     -14.541  13.711  72.444  0.00  0.00    -0.534 OA
ATOM     15  O   UNL     1     -15.039  15.785  71.844  0.00  0.00    +0.093 OA
ENDBRANCH  12  13
ENDBRANCH   1  12
TORSDOF 8
ENDMDL
MODEL 6
REMARK VINA RESULT:      -4.9      1.003      5.094
REMARK  Name = 
REMARK  8 active torsions:
REMARK  status: ('A' for Active; 'I' for Inactive)
REMARK    1  A    between atoms: N_2  and  O_4
REMARK    2  A    between atoms: O_4  and  C_5
REMARK    3  A    between atoms: C_5  and  C_6
REMARK    4  A    between atoms: C_6  and  C_7
REMARK    5  A    between atoms: C_6  and  O_12
REMARK    6  A    between atoms: C_7  and  O_8
REMARK    7  A    between atoms: O_8  and  N_9
REMARK    8  A    between atoms: O_12  and  N_13
REMARK                            x       y       z     vdW  Elec       q    Type
REMARK                         _______ _______ _______ _____ _____    ______ ____
ROOT
ATOM      1  C   UNL     1     -11.112  14.000  66.406  0.00  0.00    +0.351 C 
ENDROOT
BRANCH   1   2
ATOM      2  C   UNL     1     -10.892  14.152  67.881  0.00  0.00    +0.351 C 
BRANCH   2   3
ATOM      3  O   UNL     1     -11.940  14.859  68.528  0.00  0.00    -0.196 OA
BRANCH   3   5
ATOM      4  O   UNL     1     -11.321  17.016  68.512  0.00  0.00    +0.093 OA
ATOM      5  N   UNL     1     -11.559  16.000  69.211  0.00  0.00    +0.285 N 
ATOM      6  O   UNL     1     -12.105  16.249  70.457  0.00  0.00    -0.534 OA
ENDBRANCH   3   5
ENDBRANCH   2   3
ENDBRANCH   1   2
BRANCH   1   7
ATOM      7  C   UNL     1     -11.970  12.815  66.043  0.00  0.00    +0.351 C 
BRANCH   7   8
ATOM      8  O   UNL     1     -12.628  13.122  64.832  0.00  0.00    -0.196 OA
BRANCH   8   9
ATOM      9  N   UNL     1     -12.254  12.496  63.666  0.00  0.00    +0.285 N 
ATOM     10  O   UNL     1     -10.932  12.423  63.284  0.00  0.00    -0.534 OA
ATOM     11  O   UNL     1     -13.128  11.781  63.110  0.00  0.00    +0.093 OA
ENDBRANCH   8   9
ENDBRANCH   7   8
ENDBRANCH   1   7
BRANCH   1  12
ATOM     12  O   UNL     1     -11.574  15.162  65.774  0.00  0.00    -0.196 OA
BRANCH  12  13
ATOM     13  N   UNL     1     -10.838  15.990  64.982  0.00  0.00    +0.285 N 
ATOM     14  O   UNL     1     -11.534  16.585  63.941  0.00  0.00    -0.534 OA
ATOM     15  O   UNL     1      -9.877  16.681  65.408  0.00  0.00    +0.093 OA
ENDBRANCH  12  13
ENDBRANCH   1  12
TORSDOF 8
ENDMDL
MODEL 7
REMARK VINA RESULT:      -4.9      1.964      3.547
REMARK  Name = 
REMARK  8 active torsions:
REMARK  status: ('A' for Active; 'I' for Inactive)
REMARK    1  A    between atoms: N_2  and  O_4
REMARK    2  A    between atoms: O_4  and  C_5
REMARK    3  A    between atoms: C_5  and  C_6
REMARK    4  A    between atoms: C_6  and  C_7
REMARK    5  A    between atoms: C_6  and  O_12
REMARK    6  A    between atoms: C_7  and  O_8
REMARK    7  A    between atoms: O_8  and  N_9
REMARK    8  A    between atoms: O_12  and  N_13
REMARK                            x       y       z     vdW  Elec       q    Type
REMARK                         _______ _______ _______ _____ _____    ______ ____
ROOT
ATOM      1  C   UNL     1     -11.753  14.437  66.213  0.00  0.00    +0.351 C 
ENDROOT
BRANCH   1   2
ATOM      2  C   UNL     1     -12.830  13.941  65.294  0.00  0.00    +0.351 C 
BRANCH   2   3
ATOM      3  O   UNL     1     -12.465  14.012  63.923  0.00  0.00    -0.196 OA
BRANCH   3   5
ATOM      4  O   UNL     1     -10.909  12.462  63.457  0.00  0.00    +0.093 OA
ATOM      5  N   UNL     1     -12.110  12.810  63.336  0.00  0.00    +0.285 N 
ATOM      6  O   UNL     1     -13.029  11.777  63.314  0.00  0.00    -0.534 OA
ENDBRANCH   3   5
ENDBRANCH   2   3
ENDBRANCH   1   2
BRANCH   1   7
ATOM      7  C   UNL     1     -11.233  13.381  67.156  0.00  0.00    +0.351 C 
BRANCH   7   8
ATOM      8  O   UNL     1     -11.939  12.188  66.888  0.00  0.00    -0.196 OA
BRANCH   8   9
ATOM      9  N   UNL     1     -11.529  11.002  67.451  0.00  0.00    +0.285 N 
ATOM     10  O   UNL     1     -10.400  10.349  67.003  0.00  0.00    -0.534 OA
ATOM     11  O   UNL     1     -12.069  10.684  68.542  0.00  0.00    +0.093 OA
ENDBRANCH   8   9
ENDBRANCH   7   8
ENDBRANCH   1   7
BRANCH   1  12
ATOM     12  O   UNL     1     -10.697  15.084  65.559  0.00  0.00    -0.196 OA
BRANCH  12  13
ATOM     13  N   UNL     1     -10.601  16.422  65.322  0.00  0.00    +0.285 N 
ATOM     14  O   UNL     1      -9.392  17.000  65.676  0.00  0.00    -0.534 OA
ATOM     15  O   UNL     1     -11.174  16.996  64.361  0.00  0.00    +0.093 OA
ENDBRANCH  12  13
ENDBRANCH   1  12
TORSDOF 8
ENDMDL
MODEL 8
REMARK VINA RESULT:      -4.9      1.994      5.315
REMARK  Name = 
REMARK  8 active torsions:
REMARK  status: ('A' for Active; 'I' for Inactive)
REMARK    1  A    between atoms: N_2  and  O_4
REMARK    2  A    between atoms: O_4  and  C_5
REMARK    3  A    between atoms: C_5  and  C_6
REMARK    4  A    between atoms: C_6  and  C_7
REMARK    5  A    between atoms: C_6  and  O_12
REMARK    6  A    between atoms: C_7  and  O_8
REMARK    7  A    between atoms: O_8  and  N_9
REMARK    8  A    between atoms: O_12  and  N_13
REMARK                            x       y       z     vdW  Elec       q    Type
REMARK                         _______ _______ _______ _____ _____    ______ ____
ROOT
ATOM      1  C   UNL     1     -11.300  14.933  67.547  0.00  0.00    +0.351 C 
ENDROOT
BRANCH   1   2
ATOM      2  C   UNL     1     -11.113  15.368  68.970  0.00  0.00    +0.351 C 
BRANCH   2   3
ATOM      3  O   UNL     1     -12.260  16.007  69.510  0.00  0.00    -0.196 OA
BRANCH   3   5
ATOM      4  O   UNL     1     -12.579  14.127  70.694  0.00  0.00    +0.093 OA
ATOM      5  N   UNL     1     -12.889  15.335  70.544  0.00  0.00    +0.285 N 
ATOM      6  O   UNL     1     -13.190  16.022  71.705  0.00  0.00    -0.534 OA
ENDBRANCH   3   5
ENDBRANCH   2   3
ENDBRANCH   1   2
BRANCH   1   7
ATOM      7  C   UNL     1     -10.593  15.815  66.549  0.00  0.00    +0.351 C 
BRANCH   7   8
ATOM      8  O   UNL     1     -10.647  15.166  65.297  0.00  0.00    -0.196 OA
BRANCH   8   9
ATOM      9  N   UNL     1     -11.571  15.557  64.356  0.00  0.00    +0.285 N 
ATOM     10  O   UNL     1     -12.645  14.756  64.031  0.00  0.00    -0.534 OA
ATOM     11  O   UNL     1     -11.537  16.765  64.005  0.00  0.00    +0.093 OA
ENDBRANCH   8   9
ENDBRANCH   7   8
ENDBRANCH   1   7
BRANCH   1  12
ATOM     12  O   UNL     1     -11.002  13.584  67.319  0.00  0.00    -0.196 OA
BRANCH  12  13
ATOM     13  N   UNL     1     -11.906  12.573  67.198  0.00  0.00    +0.285 N 
ATOM     14  O   UNL     1     -12.125  12.125  65.904  0.00  0.00    -0.534 OA
ATOM     15  O   UNL     1     -12.071  11.686  68.075  0.00  0.00    +0.093 OA
ENDBRANCH  12  13
ENDBRANCH   1  12
TORSDOF 8
ENDMDL
MODEL 9
REMARK VINA RESULT:      -4.9      1.967      4.480
REMARK  Name = 
REMARK  8 active torsions:
REMARK  status: ('A' for Active; 'I' for Inactive)
REMARK    1  A    between atoms: N_2  and  O_4
REMARK    2  A    between atoms: O_4  and  C_5
REMARK    3  A    between atoms: C_5  and  C_6
REMARK    4  A    between atoms: C_6  and  C_7
REMARK    5  A    between atoms: C_6  and  O_12
REMARK    6  A    between atoms: C_7  and  O_8
REMARK    7  A    between atoms: O_8  and  N_9
REMARK    8  A    between atoms: O_12  and  N_13
REMARK                            x       y       z     vdW  Elec       q    Type
REMARK                         _______ _______ _______ _____ _____    ______ ____
ROOT
ATOM      1  C   UNL     1     -11.222  14.107  65.931  0.00  0.00    +0.351 C 
ENDROOT
BRANCH   1   2
ATOM      2  C   UNL     1     -11.207  14.384  67.405  0.00  0.00    +0.351 C 
BRANCH   2   3
ATOM      3  O   UNL     1     -12.076  13.533  68.138  0.00  0.00    -0.196 OA
BRANCH   3   5
ATOM      4  O   UNL     1     -12.146  11.310  67.838  0.00  0.00    +0.093 OA
ATOM      5  N   UNL     1     -11.582  12.271  68.418  0.00  0.00    +0.285 N 
ATOM      6  O   UNL     1     -10.227  12.117  68.646  0.00  0.00    -0.534 OA
ENDBRANCH   3   5
ENDBRANCH   2   3
ENDBRANCH   1   2
BRANCH   1   7
ATOM      7  C   UNL     1     -12.608  13.920  65.367  0.00  0.00    +0.351 C 
BRANCH   7   8
ATOM      8  O   UNL     1     -12.486  13.827  63.964  0.00  0.00    -0.196 OA
BRANCH   8   9
ATOM      9  N   UNL     1     -12.160  12.626  63.377  0.00  0.00    +0.285 N 
ATOM     10  O   UNL     1     -10.845  12.257  63.187  0.00  0.00    -0.534 OA
ATOM     11  O   UNL     1     -13.089  11.786  63.266  0.00  0.00    +0.093 OA
ENDBRANCH   8   9
ENDBRANCH   7   8
ENDBRANCH   1   7
BRANCH   1  12
ATOM     12  O   UNL     1     -10.495  15.030  65.169  0.00  0.00    -0.196 OA
BRANCH  12  13
ATOM     13  N   UNL     1     -10.686  16.379  65.147  0.00  0.00    +0.285 N 
ATOM     14  O   UNL     1      -9.650  17.132  65.677  0.00  0.00    -0.534 OA
ATOM     15  O   UNL     1     -11.331  16.970  64.243  0.00  0.00    +0.093 OA
ENDBRANCH  12  13
ENDBRANCH   1  12
TORSDOF 8
ENDMDL
