MODEL 1
REMARK VINA RESULT:      -6.3      0.000      0.000
REMARK  Name = 
REMARK  4 active torsions:
REMARK  status: ('A' for Active; 'I' for Inactive)
REMARK    1  A    between atoms: N_2  and  C_3
REMARK    2  A    between atoms: C_3  and  C_4
REMARK    3  A    between atoms: C_4  and  C_5
REMARK    4  A    between atoms: C_5  and  C_6
REMARK                            x       y       z     vdW  Elec       q    Type
REMARK                         _______ _______ _______ _____ _____    ______ ____
ROOT
ATOM      1  C   UNL     1     -10.585  15.809  68.055  0.00  0.00    +0.037 C 
ATOM      2  C   UNL     1     -11.109  15.057  66.870  0.00  0.00    -0.023 A 
ATOM      3  C   UNL     1     -10.232  15.048  65.790  0.00  0.00    -0.022 A 
ATOM      4  C   UNL     1     -10.373  14.038  64.848  0.00  0.00    -0.004 A 
ATOM      5  C   UNL     1     -11.234  12.976  65.079  0.00  0.00    -0.000 A 
ATOM      6  C   UNL     1     -11.998  12.919  66.237  0.00  0.00    -0.000 A 
ATOM      7  C   UNL     1      -8.900  15.670  66.088  0.00  0.00    +0.044 C 
ATOM      8  C   UNL     1      -9.177  17.072  66.540  0.00  0.00    -0.022 A 
ATOM      9  C   UNL     1      -8.211  18.065  66.425  0.00  0.00    -0.004 A 
ATOM     10  C   UNL     1      -8.051  19.023  67.421  0.00  0.00    -0.000 A 
ATOM     11  C   UNL     1      -9.129  19.210  68.274  0.00  0.00    -0.000 A 
ATOM     12  C   UNL     1     -10.132  18.263  68.417  0.00  0.00    -0.004 A 
ATOM     13  C   UNL     1      -8.395  14.934  67.320  0.00  0.00    +0.009 C 
ATOM     14  C   UNL     1     -11.982  14.001  67.109  0.00  0.00    -0.004 A 
ATOM     15  C   UNL     1     -10.082  17.145  67.596  0.00  0.00    -0.023 A 
ATOM     16  C   UNL     1      -9.340  15.044  68.488  0.00  0.00    +0.009 C 
ENDROOT
BRANCH   1  17
ATOM     17  C   UNL     1     -11.592  15.954  69.142  0.00  0.00    +0.010 C 
BRANCH  17  18
ATOM     18  C   UNL     1     -11.061  15.411  70.457  0.00  0.00    +0.019 C 
BRANCH  18  19
ATOM     19  C   UNL     1     -11.963  15.958  71.547  0.00  0.00    +0.089 C 
BRANCH  19  21
ATOM     20  C   UNL     1     -14.163  15.253  72.212  0.00  0.00    +0.107 C 
ATOM     21  N   UNL     1     -13.322  15.716  71.128  0.00  0.00    -0.217 NA
ENDBRANCH  19  21
ENDBRANCH  18  19
ENDBRANCH  17  18
ENDBRANCH   1  17
TORSDOF 4
ENDMDL
MODEL 2
REMARK VINA RESULT:      -6.2      2.645      4.129
REMARK  Name = 
REMARK  4 active torsions:
REMARK  status: ('A' for Active; 'I' for Inactive)
REMARK    1  A    between atoms: N_2  and  C_3
REMARK    2  A    between atoms: C_3  and  C_4
REMARK    3  A    between atoms: C_4  and  C_5
REMARK    4  A    between atoms: C_5  and  C_6
REMARK                            x       y       z     vdW  Elec       q    Type
REMARK                         _______ _______ _______ _____ _____    ______ ____
ROOT
ATOM      1  C   UNL     1     -11.430  12.795  68.421  0.00  0.00    +0.037 C 
ATOM      2  C   UNL     1     -11.822  13.109  67.009  0.00  0.00    -0.023 A 
ATOM      3  C   UNL     1     -11.561  14.427  66.644  0.00  0.00    -0.022 A 
ATOM      4  C   UNL     1     -11.436  14.712  65.291  0.00  0.00    -0.004 A 
ATOM      5  C   UNL     1     -11.387  13.688  64.358  0.00  0.00    -0.000 A 
ATOM      6  C   UNL     1     -11.499  12.361  64.752  0.00  0.00    -0.000 A 
ATOM      7  C   UNL     1     -10.819  15.206  67.688  0.00  0.00    +0.044 C 
ATOM      8  C   UNL     1     -11.653  15.153  68.932  0.00  0.00    -0.022 A 
ATOM      9  C   UNL     1     -11.543  16.133  69.912  0.00  0.00    -0.004 A 
ATOM     10  C   UNL     1     -11.604  15.804  71.262  0.00  0.00    -0.000 A 
ATOM     11  C   UNL     1     -12.198  14.588  71.571  0.00  0.00    -0.000 A 
ATOM     12  C   UNL     1     -12.352  13.580  70.632  0.00  0.00    -0.004 A 
ATOM     13  C   UNL     1      -9.581  14.375  67.988  0.00  0.00    +0.009 C 
ATOM     14  C   UNL     1     -11.783  12.074  66.082  0.00  0.00    -0.004 A 
ATOM     15  C   UNL     1     -11.980  13.857  69.323  0.00  0.00    -0.023 A 
ATOM     16  C   UNL     1      -9.918  12.985  68.460  0.00  0.00    +0.009 C 
ENDROOT
BRANCH   1  17
ATOM     17  C   UNL     1     -11.861  11.437  68.854  0.00  0.00    +0.010 C 
BRANCH  17  18
ATOM     18  C   UNL     1     -10.689  10.635  69.391  0.00  0.00    +0.019 C 
BRANCH  18  19
ATOM     19  C   UNL     1     -11.175   9.954  70.656  0.00  0.00    +0.089 C 
BRANCH  19  21
ATOM     20  C   UNL     1     -13.190   9.765  71.954  0.00  0.00    +0.107 C 
ATOM     21  N   UNL     1     -12.614  10.038  70.653  0.00  0.00    -0.217 NA
ENDBRANCH  19  21
ENDBRANCH  18  19
ENDBRANCH  17  18
ENDBRANCH   1  17
TORSDOF 4
ENDMDL
MODEL 3
REMARK VINA RESULT:      -6.1      2.603      5.676
REMARK  Name = 
REMARK  4 active torsions:
REMARK  status: ('A' for Active; 'I' for Inactive)
REMARK    1  A    between atoms: N_2  and  C_3
REMARK    2  A    between atoms: C_3  and  C_4
REMARK    3  A    between atoms: C_4  and  C_5
REMARK    4  A    between atoms: C_5  and  C_6
REMARK                            x       y       z     vdW  Elec       q    Type
REMARK                         _______ _______ _______ _____ _____    ______ ____
ROOT
ATOM      1  C   UNL     1     -10.706  13.408  66.428  0.00  0.00    +0.037 C 
ATOM      2  C   UNL     1     -11.562  13.041  67.602  0.00  0.00    -0.023 A 
ATOM      3  C   UNL     1     -11.373  11.732  68.036  0.00  0.00    -0.022 A 
ATOM      4  C   UNL     1     -11.728  11.425  69.342  0.00  0.00    -0.004 A 
ATOM      5  C   UNL     1     -12.079  12.429  70.231  0.00  0.00    -0.000 A 
ATOM      6  C   UNL     1     -12.119  13.756  69.825  0.00  0.00    -0.000 A 
ATOM      7  C   UNL     1     -10.260  11.017  67.330  0.00  0.00    +0.044 C 
ATOM      8  C   UNL     1     -10.592  11.053  65.869  0.00  0.00    -0.022 A 
ATOM      9  C   UNL     1     -10.078  10.102  64.994  0.00  0.00    -0.004 A 
ATOM     10  C   UNL     1      -9.668  10.457  63.713  0.00  0.00    -0.000 A 
ATOM     11  C   UNL     1     -10.180  11.645  63.211  0.00  0.00    -0.000 A 
ATOM     12  C   UNL     1     -10.721  12.623  64.032  0.00  0.00    -0.004 A 
ATOM     13  C   UNL     1      -9.048  11.921  67.498  0.00  0.00    +0.009 C 
ATOM     14  C   UNL     1     -11.920  14.056  68.482  0.00  0.00    -0.004 A 
ATOM     15  C   UNL     1     -10.831  12.337  65.387  0.00  0.00    -0.023 A 
ATOM     16  C   UNL     1      -9.273  13.301  66.937  0.00  0.00    +0.009 C 
ENDROOT
BRANCH   1  17
ATOM     17  C   UNL     1     -11.031  14.749  65.869  0.00  0.00    +0.010 C 
BRANCH  17  18
ATOM     18  C   UNL     1      -9.799  15.636  65.822  0.00  0.00    +0.019 C 
BRANCH  18  19
ATOM     19  C   UNL     1     -10.137  16.888  66.607  0.00  0.00    +0.089 C 
BRANCH  19  21
ATOM     20  C   UNL     1     -10.493  19.242  66.267  0.00  0.00    +0.107 C 
ATOM     21  N   UNL     1     -10.365  17.939  65.646  0.00  0.00    -0.217 NA
ENDBRANCH  19  21
ENDBRANCH  18  19
ENDBRANCH  17  18
ENDBRANCH   1  17
TORSDOF 4
ENDMDL
MODEL 4
REMARK VINA RESULT:      -6.1      2.737      4.804
REMARK  Name = 
REMARK  4 active torsions:
REMARK  status: ('A' for Active; 'I' for Inactive)
REMARK    1  A    between atoms: N_2  and  C_3
REMARK    2  A    between atoms: C_3  and  C_4
REMARK    3  A    between atoms: C_4  and  C_5
REMARK    4  A    between atoms: C_5  and  C_6
REMARK                            x       y       z     vdW  Elec       q    Type
REMARK                         _______ _______ _______ _____ _____    ______ ____
ROOT
ATOM      1  C   UNL     1     -11.321  12.579  68.027  0.00  0.00    +0.037 C 
ATOM      2  C   UNL     1     -11.461  11.181  68.550  0.00  0.00    -0.023 A 
ATOM      3  C   UNL     1     -10.945  10.216  67.691  0.00  0.00    -0.022 A 
ATOM      4  C   UNL     1     -10.591   8.987  68.233  0.00  0.00    -0.004 A 
ATOM      5  C   UNL     1     -10.580   8.802  69.607  0.00  0.00    -0.000 A 
ATOM      6  C   UNL     1     -10.956   9.826  70.466  0.00  0.00    -0.000 A 
ATOM      7  C   UNL     1     -10.237  10.786  66.498  0.00  0.00    +0.044 C 
ATOM      8  C   UNL     1     -11.232  11.654  65.789  0.00  0.00    -0.022 A 
ATOM      9  C   UNL     1     -11.101  11.934  64.433  0.00  0.00    -0.004 A 
ATOM     10  C   UNL     1     -11.399  13.197  63.933  0.00  0.00    -0.000 A 
ATOM     11  C   UNL     1     -12.216  13.994  64.722  0.00  0.00    -0.000 A 
ATOM     12  C   UNL     1     -12.399  13.754  66.075  0.00  0.00    -0.004 A 
ATOM     13  C   UNL     1      -9.201  11.737  67.077  0.00  0.00    +0.009 C 
ATOM     14  C   UNL     1     -11.461  11.004  69.930  0.00  0.00    -0.004 A 
ATOM     15  C   UNL     1     -11.812  12.616  66.612  0.00  0.00    -0.023 A 
ATOM     16  C   UNL     1      -9.818  12.813  67.931  0.00  0.00    +0.009 C 
ENDROOT
BRANCH   1  17
ATOM     17  C   UNL     1     -12.019  13.587  68.871  0.00  0.00    +0.010 C 
BRANCH  17  18
ATOM     18  C   UNL     1     -11.045  14.621  69.409  0.00  0.00    +0.019 C 
BRANCH  18  19
ATOM     19  C   UNL     1     -11.776  15.950  69.397  0.00  0.00    +0.089 C 
BRANCH  19  21
ATOM     20  C   UNL     1     -11.969  16.021  71.793  0.00  0.00    +0.107 C 
ATOM     21  N   UNL     1     -12.671  15.947  70.528  0.00  0.00    -0.217 NA
ENDBRANCH  19  21
ENDBRANCH  18  19
ENDBRANCH  17  18
ENDBRANCH   1  17
TORSDOF 4
ENDMDL
MODEL 5
REMARK VINA RESULT:      -6.0      1.746      5.076
REMARK  Name = 
REMARK  4 active torsions:
REMARK  status: ('A' for Active; 'I' for Inactive)
REMARK    1  A    between atoms: N_2  and  C_3
REMARK    2  A    between atoms: C_3  and  C_4
REMARK    3  A    between atoms: C_4  and  C_5
REMARK    4  A    between atoms: C_5  and  C_6
REMARK                            x       y       z     vdW  Elec       q    Type
REMARK                         _______ _______ _______ _____ _____    ______ ____
ROOT
ATOM      1  C   UNL     1     -10.846  15.172  67.757  0.00  0.00    +0.037 C 
ATOM      2  C   UNL     1     -11.688  15.082  68.993  0.00  0.00    -0.023 A 
ATOM      3  C   UNL     1     -12.022  13.776  69.340  0.00  0.00    -0.022 A 
ATOM      4  C   UNL     1     -12.374  13.526  70.659  0.00  0.00    -0.004 A 
ATOM      5  C   UNL     1     -12.216  14.506  71.628  0.00  0.00    -0.000 A 
ATOM      6  C   UNL     1     -11.738  15.765  71.293  0.00  0.00    -0.000 A 
ATOM      7  C   UNL     1     -11.356  12.736  68.489  0.00  0.00    +0.044 C 
ATOM      8  C   UNL     1     -11.750  13.030  67.073  0.00  0.00    -0.022 A 
ATOM      9  C   UNL     1     -11.737  12.032  66.105  0.00  0.00    -0.004 A 
ATOM     10  C   UNL     1     -11.313  12.301  64.808  0.00  0.00    -0.000 A 
ATOM     11  C   UNL     1     -11.328  13.633  64.420  0.00  0.00    -0.000 A 
ATOM     12  C   UNL     1     -11.358  14.671  65.339  0.00  0.00    -0.004 A 
ATOM     13  C   UNL     1      -9.871  13.055  68.577  0.00  0.00    +0.009 C 
ATOM     14  C   UNL     1     -11.533  16.075  69.954  0.00  0.00    -0.004 A 
ATOM     15  C   UNL     1     -11.476  14.337  66.682  0.00  0.00    -0.023 A 
ATOM     16  C   UNL     1      -9.550  14.451  68.110  0.00  0.00    +0.009 C 
ENDROOT
BRANCH   1  17
ATOM     17  C   UNL     1     -10.632  16.572  67.301  0.00  0.00    +0.010 C 
BRANCH  17  18
ATOM     18  C   UNL     1      -9.183  16.991  67.477  0.00  0.00    +0.019 C 
BRANCH  18  19
ATOM     19  C   UNL     1      -9.203  18.324  68.200  0.00  0.00    +0.089 C 
BRANCH  19  21
ATOM     20  C   UNL     1     -10.279  20.088  66.971  0.00  0.00    +0.107 C 
ATOM     21  N   UNL     1     -10.452  18.964  67.868  0.00  0.00    -0.217 NA
ENDBRANCH  19  21
ENDBRANCH  18  19
ENDBRANCH  17  18
ENDBRANCH   1  17
TORSDOF 4
ENDMDL
MODEL 6
REMARK VINA RESULT:      -5.9      2.860      5.247
REMARK  Name = 
REMARK  4 active torsions:
REMARK  status: ('A' for Active; 'I' for Inactive)
REMARK    1  A    between atoms: N_2  and  C_3
REMARK    2  A    between atoms: C_3  and  C_4
REMARK    3  A    between atoms: C_4  and  C_5
REMARK    4  A    between atoms: C_5  and  C_6
REMARK                            x       y       z     vdW  Elec       q    Type
REMARK                         _______ _______ _______ _____ _____    ______ ____
ROOT
ATOM      1  C   UNL     1     -11.271  12.428  67.682  0.00  0.00    +0.037 C 
ATOM      2  C   UNL     1     -11.427  11.090  68.339  0.00  0.00    -0.023 A 
ATOM      3  C   UNL     1     -10.883  10.045  67.598  0.00  0.00    -0.022 A 
ATOM      4  C   UNL     1     -10.546   8.879  68.273  0.00  0.00    -0.004 A 
ATOM      5  C   UNL     1     -10.578   8.833  69.658  0.00  0.00    -0.000 A 
ATOM      6  C   UNL     1     -10.982   9.937  70.396  0.00  0.00    -0.000 A 
ATOM      7  C   UNL     1     -10.138  10.494  66.376  0.00  0.00    +0.044 C 
ATOM      8  C   UNL     1     -11.111  11.282  65.552  0.00  0.00    -0.022 A 
ATOM      9  C   UNL     1     -10.937  11.424  64.180  0.00  0.00    -0.004 A 
ATOM     10  C   UNL     1     -11.220  12.629  63.545  0.00  0.00    -0.000 A 
ATOM     11  C   UNL     1     -12.062  13.499  64.224  0.00  0.00    -0.000 A 
ATOM     12  C   UNL     1     -12.288  13.395  65.588  0.00  0.00    -0.004 A 
ATOM     13  C   UNL     1      -9.122  11.503  66.889  0.00  0.00    +0.009 C 
ATOM     14  C   UNL     1     -11.470  11.053  69.728  0.00  0.00    -0.004 A 
ATOM     15  C   UNL     1     -11.718  12.320  66.255  0.00  0.00    -0.023 A 
ATOM     16  C   UNL     1      -9.766  12.658  67.610  0.00  0.00    +0.009 C 
ENDROOT
BRANCH   1  17
ATOM     17  C   UNL     1     -11.997  13.513  68.397  0.00  0.00    +0.010 C 
BRANCH  17  18
ATOM     18  C   UNL     1     -11.039  14.590  68.876  0.00  0.00    +0.019 C 
BRANCH  18  19
ATOM     19  C   UNL     1     -11.588  15.912  68.375  0.00  0.00    +0.089 C 
BRANCH  19  21
ATOM     20  C   UNL     1     -10.139  17.829  68.302  0.00  0.00    +0.107 C 
ATOM     21  N   UNL     1     -10.937  16.952  69.133  0.00  0.00    -0.217 NA
ENDBRANCH  19  21
ENDBRANCH  18  19
ENDBRANCH  17  18
ENDBRANCH   1  17
TORSDOF 4
ENDMDL
MODEL 7
REMARK VINA RESULT:      -5.8      2.501      5.136
REMARK  Name = 
REMARK  4 active torsions:
REMARK  status: ('A' for Active; 'I' for Inactive)
REMARK    1  A    between atoms: N_2  and  C_3
REMARK    2  A    between atoms: C_3  and  C_4
REMARK    3  A    between atoms: C_4  and  C_5
REMARK    4  A    between atoms: C_5  and  C_6
REMARK                            x       y       z     vdW  Elec       q    Type
REMARK                         _______ _______ _______ _____ _____    ______ ____
ROOT
ATOM      1  C   UNL     1     -10.689  13.282  67.153  0.00  0.00    +0.037 C 
ATOM      2  C   UNL     1     -10.157  14.681  67.078  0.00  0.00    -0.023 A 
ATOM      3  C   UNL     1     -10.304  15.260  65.821  0.00  0.00    -0.022 A 
ATOM      4  C   UNL     1     -10.294  16.646  65.741  0.00  0.00    -0.004 A 
ATOM      5  C   UNL     1     -10.324  17.418  66.893  0.00  0.00    -0.000 A 
ATOM      6  C   UNL     1     -10.329  16.823  68.147  0.00  0.00    -0.000 A 
ATOM      7  C   UNL     1     -11.085  14.419  64.856  0.00  0.00    +0.044 C 
ATOM      8  C   UNL     1     -10.366  13.107  64.758  0.00  0.00    -0.022 A 
ATOM      9  C   UNL     1     -10.501  12.299  63.635  0.00  0.00    -0.004 A 
ATOM     10  C   UNL     1     -10.577  10.915  63.756  0.00  0.00    -0.000 A 
ATOM     11  C   UNL     1     -10.088  10.374  64.937  0.00  0.00    -0.000 A 
ATOM     12  C   UNL     1      -9.915  11.134  66.083  0.00  0.00    -0.004 A 
ATOM     13  C   UNL     1     -12.393  14.118  65.572  0.00  0.00    +0.009 C 
ATOM     14  C   UNL     1     -10.180  15.444  68.240  0.00  0.00    -0.004 A 
ATOM     15  C   UNL     1     -10.154  12.499  65.992  0.00  0.00    -0.023 A 
ATOM     16  C   UNL     1     -12.184  13.415  66.887  0.00  0.00    +0.009 C 
ENDROOT
BRANCH   1  17
ATOM     17  C   UNL     1     -10.381  12.613  68.447  0.00  0.00    +0.010 C 
BRANCH  17  18
ATOM     18  C   UNL     1     -11.653  12.251  69.194  0.00  0.00    +0.019 C 
BRANCH  18  19
ATOM     19  C   UNL     1     -11.525  10.790  69.582  0.00  0.00    +0.089 C 
BRANCH  19  21
ATOM     20  C   UNL     1     -11.935   9.448  71.534  0.00  0.00    +0.107 C 
ATOM     21  N   UNL     1     -12.349  10.592  70.749  0.00  0.00    -0.217 NA
ENDBRANCH  19  21
ENDBRANCH  18  19
ENDBRANCH  17  18
ENDBRANCH   1  17
TORSDOF 4
ENDMDL
MODEL 8
REMARK VINA RESULT:      -5.6      3.312      6.102
REMARK  Name = 
REMARK  4 active torsions:
REMARK  status: ('A' for Active; 'I' for Inactive)
REMARK    1  A    between atoms: N_2  and  C_3
REMARK    2  A    between atoms: C_3  and  C_4
REMARK    3  A    between atoms: C_4  and  C_5
REMARK    4  A    between atoms: C_5  and  C_6
REMARK                            x       y       z     vdW  Elec       q    Type
REMARK                         _______ _______ _______ _____ _____    ______ ____
ROOT
ATOM      1  C   UNL     1     -10.874  12.156  66.892  0.00  0.00    +0.037 C 
ATOM      2  C   UNL     1     -11.356  11.189  67.931  0.00  0.00    -0.023 A 
ATOM      3  C   UNL     1     -10.706   9.959  67.885  0.00  0.00    -0.022 A 
ATOM      4  C   UNL     1     -10.713   9.179  69.034  0.00  0.00    -0.004 A 
ATOM      5  C   UNL     1     -11.188   9.693  70.231  0.00  0.00    -0.000 A 
ATOM      6  C   UNL     1     -11.698  10.982  70.298  0.00  0.00    -0.000 A 
ATOM      7  C   UNL     1      -9.574   9.911  66.904  0.00  0.00    +0.044 C 
ATOM      8  C   UNL     1     -10.155  10.259  65.567  0.00  0.00    -0.022 A 
ATOM      9  C   UNL     1      -9.542   9.844  64.389  0.00  0.00    -0.004 A 
ATOM     10  C   UNL     1      -9.493  10.678  63.278  0.00  0.00    -0.000 A 
ATOM     11  C   UNL     1     -10.421  11.709  63.242  0.00  0.00    -0.000 A 
ATOM     12  C   UNL     1     -11.077  12.154  64.379  0.00  0.00    -0.004 A 
ATOM     13  C   UNL     1      -8.682  11.084  67.281  0.00  0.00    +0.009 C 
ATOM     14  C   UNL     1     -11.841  11.713  69.125  0.00  0.00    -0.004 A 
ATOM     15  C   UNL     1     -10.853  11.463  65.563  0.00  0.00    -0.023 A 
ATOM     16  C   UNL     1      -9.409  12.402  67.234  0.00  0.00    +0.009 C 
ENDROOT
BRANCH   1  17
ATOM     17  C   UNL     1     -11.682  13.404  66.841  0.00  0.00    +0.010 C 
BRANCH  17  18
ATOM     18  C   UNL     1     -10.812  14.631  67.054  0.00  0.00    +0.019 C 
BRANCH  18  19
ATOM     19  C   UNL     1     -11.006  15.515  65.837  0.00  0.00    +0.089 C 
BRANCH  19  21
ATOM     20  C   UNL     1      -8.708  15.971  66.375  0.00  0.00    +0.107 C 
ATOM     21  N   UNL     1      -9.693  15.819  65.324  0.00  0.00    -0.217 NA
ENDBRANCH  19  21
ENDBRANCH  18  19
ENDBRANCH  17  18
ENDBRANCH   1  17
TORSDOF 4
ENDMDL
MODEL 9
REMARK VINA RESULT:      -5.5      1.506      2.126
REMARK  Name = 
REMARK  4 active torsions:
REMARK  status: ('A' for Active; 'I' for Inactive)
REMARK    1  A    between atoms: N_2  and  C_3
REMARK    2  A    between atoms: C_3  and  C_4
REMARK    3  A    between atoms: C_4  and  C_5
REMARK    4  A    between atoms: C_5  and  C_6
REMARK                            x       y       z     vdW  Elec       q    Type
REMARK                         _______ _______ _______ _____ _____    ______ ____
ROOT
ATOM      1  C   UNL     1     -10.597  14.917  69.042  0.00  0.00    +0.037 C 
ATOM      2  C   UNL     1     -11.385  13.695  68.677  0.00  0.00    -0.023 A 
ATOM      3  C   UNL     1     -11.256  13.333  67.340  0.00  0.00    -0.022 A 
ATOM      4  C   UNL     1     -11.531  12.017  66.995  0.00  0.00    -0.004 A 
ATOM      5  C   UNL     1     -11.744  11.062  67.977  0.00  0.00    -0.000 A 
ATOM      6  C   UNL     1     -11.722  11.408  69.322  0.00  0.00    -0.000 A 
ATOM      7  C   UNL     1     -10.252  14.154  66.587  0.00  0.00    +0.044 C 
ATOM      8  C   UNL     1     -10.689  15.582  66.713  0.00  0.00    -0.022 A 
ATOM      9  C   UNL     1     -10.311  16.533  65.773  0.00  0.00    -0.004 A 
ATOM     10  C   UNL     1      -9.975  17.826  66.160  0.00  0.00    -0.000 A 
ATOM     11  C   UNL     1     -10.440  18.236  67.402  0.00  0.00    -0.000 A 
ATOM     12  C   UNL     1     -10.848  17.335  68.373  0.00  0.00    -0.004 A 
ATOM     13  C   UNL     1      -8.971  14.044  67.399  0.00  0.00    +0.009 C 
ATOM     14  C   UNL     1     -11.605  12.748  69.671  0.00  0.00    -0.004 A 
ATOM     15  C   UNL     1     -10.875  15.989  68.032  0.00  0.00    -0.023 A 
ATOM     16  C   UNL     1      -9.141  14.527  68.816  0.00  0.00    +0.009 C 
ENDROOT
BRANCH   1  17
ATOM     17  C   UNL     1     -10.869  15.391  70.426  0.00  0.00    +0.010 C 
BRANCH  17  18
ATOM     18  C   UNL     1     -12.362  15.489  70.689  0.00  0.00    +0.019 C 
BRANCH  18  19
ATOM     19  C   UNL     1     -12.519  15.943  72.128  0.00  0.00    +0.089 C 
BRANCH  19  21
ATOM     20  C   UNL     1     -14.635  14.951  71.564  0.00  0.00    +0.107 C 
ATOM     21  N   UNL     1     -13.922  15.851  72.447  0.00  0.00    -0.217 NA
ENDBRANCH  19  21
ENDBRANCH  18  19
ENDBRANCH  17  18
ENDBRANCH   1  17
TORSDOF 4
ENDMDL
