MODEL 1
REMARK VINA RESULT:      -5.1      0.000      0.000
REMARK  Name = 
REMARK  3 active torsions:
REMARK  status: ('A' for Active; 'I' for Inactive)
REMARK    1  A    between atoms: N_2  and  N_4
REMARK    2  A    between atoms: N_5  and  C_6
REMARK    3  A    between atoms: C_10  and  C_11
REMARK                            x       y       z     vdW  Elec       q    Type
REMARK                         _______ _______ _______ _____ _____    ______ ____
ROOT
ATOM      1  C   UNL     1     -11.532  13.830  66.244  0.00  0.00    +0.209 A 
ATOM      2  C   UNL     1     -11.499  14.464  65.006  0.00  0.00    +0.177 A 
ATOM      3  N   UNL     1     -12.387  13.853  64.185  0.00  0.00    -0.216 NA
ATOM      4  C   UNL     1     -12.494  12.593  64.671  0.00  0.00    +0.201 A 
ATOM      5  N   UNL     1     -12.230  12.695  65.996  0.00  0.00    -0.202 NA
ENDROOT
BRANCH   2   6
ATOM      6  C   UNL     1     -11.084  15.844  64.784  0.00  0.00    +0.305 C 
ATOM      7  O   UNL     1     -11.699  16.521  63.939  0.00  0.00    -0.265 OA
ATOM      8  N   UNL     1      -9.969  16.396  65.455  0.00  0.00    -0.082 NA
ENDBRANCH   2   6
BRANCH   1  10
ATOM      9  N   UNL     1     -10.572  13.621  68.301  0.00  0.00    -0.076 NA
ATOM     10  N   UNL     1     -10.347  13.816  67.056  0.00  0.00    -0.111 NA
BRANCH   9  12
ATOM     11  C   UNL     1     -11.091  16.012  68.851  0.00  0.00    +0.136 C 
ATOM     12  N   UNL     1     -11.407  14.593  68.882  0.00  0.00    -0.211 N 
ATOM     13  C   UNL     1     -12.320  14.101  69.909  0.00  0.00    +0.136 C 
ENDBRANCH   9  12
ENDBRANCH   1  10
TORSDOF 3
ENDMDL
MODEL 2
REMARK VINA RESULT:      -5.1      2.583      4.845
REMARK  Name = 
REMARK  3 active torsions:
REMARK  status: ('A' for Active; 'I' for Inactive)
REMARK    1  A    between atoms: N_2  and  N_4
REMARK    2  A    between atoms: N_5  and  C_6
REMARK    3  A    between atoms: C_10  and  C_11
REMARK                            x       y       z     vdW  Elec       q    Type
REMARK                         _______ _______ _______ _____ _____    ______ ____
ROOT
ATOM      1  C   UNL     1     -10.389  17.334  66.228  0.00  0.00    +0.209 A 
ATOM      2  C   UNL     1     -10.427  17.687  67.573  0.00  0.00    +0.177 A 
ATOM      3  N   UNL     1     -10.848  18.971  67.670  0.00  0.00    -0.216 NA
ATOM      4  C   UNL     1     -10.504  19.536  66.487  0.00  0.00    +0.201 A 
ATOM      5  N   UNL     1     -10.514  18.523  65.588  0.00  0.00    -0.202 NA
ENDROOT
BRANCH   2   6
ATOM      6  C   UNL     1     -10.585  16.750  68.679  0.00  0.00    +0.305 C 
ATOM      7  O   UNL     1      -9.561  16.315  69.239  0.00  0.00    -0.265 OA
ATOM      8  N   UNL     1     -11.858  16.284  69.077  0.00  0.00    -0.082 NA
ENDBRANCH   2   6
BRANCH   1  10
ATOM      9  N   UNL     1      -9.926  15.494  64.963  0.00  0.00    -0.076 NA
ATOM     10  N   UNL     1      -9.444  16.346  65.789  0.00  0.00    -0.111 NA
BRANCH   9  12
ATOM     11  C   UNL     1     -10.865  13.797  66.553  0.00  0.00    +0.136 C 
ATOM     12  N   UNL     1     -11.014  14.764  65.477  0.00  0.00    -0.211 N 
ATOM     13  C   UNL     1     -12.168  14.654  64.591  0.00  0.00    +0.136 C 
ENDBRANCH   9  12
ENDBRANCH   1  10
TORSDOF 3
ENDMDL
MODEL 3
REMARK VINA RESULT:      -4.9      2.090      3.772
REMARK  Name = 
REMARK  3 active torsions:
REMARK  status: ('A' for Active; 'I' for Inactive)
REMARK    1  A    between atoms: N_2  and  N_4
REMARK    2  A    between atoms: N_5  and  C_6
REMARK    3  A    between atoms: C_10  and  C_11
REMARK                            x       y       z     vdW  Elec       q    Type
REMARK                         _______ _______ _______ _____ _____    ______ ____
ROOT
ATOM      1  C   UNL     1     -10.112  16.167  66.377  0.00  0.00    +0.209 A 
ATOM      2  C   UNL     1     -10.839  15.219  65.665  0.00  0.00    +0.177 A 
ATOM      3  N   UNL     1     -11.134  14.189  66.493  0.00  0.00    -0.216 NA
ATOM      4  C   UNL     1     -10.160  14.215  67.434  0.00  0.00    +0.201 A 
ATOM      5  N   UNL     1      -9.769  15.510  67.512  0.00  0.00    -0.202 NA
ENDROOT
BRANCH   2   6
ATOM      6  C   UNL     1     -11.648  15.500  64.484  0.00  0.00    +0.305 C 
ATOM      7  O   UNL     1     -11.585  16.637  63.978  0.00  0.00    -0.265 OA
ATOM      8  N   UNL     1     -12.537  14.539  63.952  0.00  0.00    -0.082 NA
ENDBRANCH   2   6
BRANCH   1  10
ATOM      9  N   UNL     1      -8.747  17.994  66.364  0.00  0.00    -0.076 NA
ATOM     10  N   UNL     1      -9.168  16.996  65.680  0.00  0.00    -0.111 NA
BRANCH   9  12
ATOM     11  C   UNL     1     -10.507  19.702  65.842  0.00  0.00    +0.136 C 
ATOM     12  N   UNL     1      -9.772  18.866  66.776  0.00  0.00    -0.211 N 
ATOM     13  C   UNL     1      -9.736  19.251  68.183  0.00  0.00    +0.136 C 
ENDBRANCH   9  12
ENDBRANCH   1  10
TORSDOF 3
ENDMDL
MODEL 4
REMARK VINA RESULT:      -4.9      1.698      3.689
REMARK  Name = 
REMARK  3 active torsions:
REMARK  status: ('A' for Active; 'I' for Inactive)
REMARK    1  A    between atoms: N_2  and  N_4
REMARK    2  A    between atoms: N_5  and  C_6
REMARK    3  A    between atoms: C_10  and  C_11
REMARK                            x       y       z     vdW  Elec       q    Type
REMARK                         _______ _______ _______ _____ _____    ______ ____
ROOT
ATOM      1  C   UNL     1     -11.607  14.206  66.735  0.00  0.00    +0.209 A 
ATOM      2  C   UNL     1     -11.137  15.514  66.664  0.00  0.00    +0.177 A 
ATOM      3  N   UNL     1     -10.886  15.952  67.921  0.00  0.00    -0.216 NA
ATOM      4  C   UNL     1     -11.704  15.215  68.711  0.00  0.00    +0.201 A 
ATOM      5  N   UNL     1     -11.881  14.044  68.053  0.00  0.00    -0.202 NA
ENDROOT
BRANCH   2   6
ATOM      6  C   UNL     1     -10.468  16.099  65.507  0.00  0.00    +0.305 C 
ATOM      7  O   UNL     1      -9.224  16.161  65.508  0.00  0.00    -0.265 OA
ATOM      8  N   UNL     1     -11.201  16.648  64.431  0.00  0.00    -0.082 NA
ENDBRANCH   2   6
BRANCH   1  10
ATOM      9  N   UNL     1     -12.398  12.473  65.483  0.00  0.00    -0.076 NA
ATOM     10  N   UNL     1     -12.504  13.727  65.722  0.00  0.00    -0.111 NA
BRANCH   9  12
ATOM     11  C   UNL     1     -10.628  12.357  63.710  0.00  0.00    +0.136 C 
ATOM     12  N   UNL     1     -11.114  12.088  65.054  0.00  0.00    -0.211 N 
ATOM     13  C   UNL     1     -10.495  11.012  65.821  0.00  0.00    +0.136 C 
ENDBRANCH   9  12
ENDBRANCH   1  10
TORSDOF 3
ENDMDL
MODEL 5
REMARK VINA RESULT:      -4.5      1.900      3.348
REMARK  Name = 
REMARK  3 active torsions:
REMARK  status: ('A' for Active; 'I' for Inactive)
REMARK    1  A    between atoms: N_2  and  N_4
REMARK    2  A    between atoms: N_5  and  C_6
REMARK    3  A    between atoms: C_10  and  C_11
REMARK                            x       y       z     vdW  Elec       q    Type
REMARK                         _______ _______ _______ _____ _____    ______ ____
ROOT
ATOM      1  C   UNL     1     -10.616  13.405  66.653  0.00  0.00    +0.209 A 
ATOM      2  C   UNL     1     -11.652  12.622  66.154  0.00  0.00    +0.177 A 
ATOM      3  N   UNL     1     -12.015  11.729  67.106  0.00  0.00    -0.216 NA
ATOM      4  C   UNL     1     -10.906  11.570  67.868  0.00  0.00    +0.201 A 
ATOM      5  N   UNL     1     -10.229  12.739  67.769  0.00  0.00    -0.202 NA
ENDROOT
BRANCH   2   6
ATOM      6  C   UNL     1     -12.577  13.030  65.103  0.00  0.00    +0.305 C 
ATOM      7  O   UNL     1     -13.322  14.006  65.313  0.00  0.00    -0.265 OA
ATOM      8  N   UNL     1     -12.686  12.307  63.894  0.00  0.00    -0.082 NA
ENDBRANCH   2   6
BRANCH   1  10
ATOM      9  N   UNL     1      -9.290  15.151  66.026  0.00  0.00    -0.076 NA
ATOM     10  N   UNL     1      -9.652  13.956  65.741  0.00  0.00    -0.111 NA
BRANCH   9  12
ATOM     11  C   UNL     1     -11.042  16.491  64.832  0.00  0.00    +0.136 C 
ATOM     12  N   UNL     1     -10.354  16.073  66.042  0.00  0.00    -0.211 N 
ATOM     13  C   UNL     1     -10.415  16.936  67.217  0.00  0.00    +0.136 C 
ENDBRANCH   9  12
ENDBRANCH   1  10
TORSDOF 3
ENDMDL
MODEL 6
REMARK VINA RESULT:      -4.5      2.063      2.322
REMARK  Name = 
REMARK  3 active torsions:
REMARK  status: ('A' for Active; 'I' for Inactive)
REMARK    1  A    between atoms: N_2  and  N_4
REMARK    2  A    between atoms: N_5  and  C_6
REMARK    3  A    between atoms: C_10  and  C_11
REMARK                            x       y       z     vdW  Elec       q    Type
REMARK                         _______ _______ _______ _____ _____    ______ ____
ROOT
ATOM      1  C   UNL     1     -10.680  12.389  65.392  0.00  0.00    +0.209 A 
ATOM      2  C   UNL     1     -11.336  13.106  64.397  0.00  0.00    +0.177 A 
ATOM      3  N   UNL     1     -11.447  12.321  63.299  0.00  0.00    -0.216 NA
ATOM      4  C   UNL     1     -10.420  11.443  63.400  0.00  0.00    +0.201 A 
ATOM      5  N   UNL     1     -10.183  11.316  64.728  0.00  0.00    -0.202 NA
ENDROOT
BRANCH   2   6
ATOM      6  C   UNL     1     -12.253  14.216  64.634  0.00  0.00    +0.305 C 
ATOM      7  O   UNL     1     -13.285  14.002  65.297  0.00  0.00    -0.265 OA
ATOM      8  N   UNL     1     -12.024  15.494  64.076  0.00  0.00    -0.082 NA
ENDBRANCH   2   6
BRANCH   1  10
ATOM      9  N   UNL     1      -9.961  12.605  67.545  0.00  0.00    -0.076 NA
ATOM     10  N   UNL     1      -9.893  13.095  66.364  0.00  0.00    -0.111 NA
BRANCH   9  12
ATOM     11  C   UNL     1     -11.950  13.787  68.512  0.00  0.00    +0.136 C 
ATOM     12  N   UNL     1     -11.266  12.583  68.071  0.00  0.00    -0.211 N 
ATOM     13  C   UNL     1     -11.706  11.295  68.598  0.00  0.00    +0.136 C 
ENDBRANCH   9  12
ENDBRANCH   1  10
TORSDOF 3
ENDMDL
MODEL 7
REMARK VINA RESULT:      -4.5      2.480      4.119
REMARK  Name = 
REMARK  3 active torsions:
REMARK  status: ('A' for Active; 'I' for Inactive)
REMARK    1  A    between atoms: N_2  and  N_4
REMARK    2  A    between atoms: N_5  and  C_6
REMARK    3  A    between atoms: C_10  and  C_11
REMARK                            x       y       z     vdW  Elec       q    Type
REMARK                         _______ _______ _______ _____ _____    ______ ____
ROOT
ATOM      1  C   UNL     1     -10.335  17.549  67.650  0.00  0.00    +0.209 A 
ATOM      2  C   UNL     1     -10.435  17.752  66.277  0.00  0.00    +0.177 A 
ATOM      3  N   UNL     1      -9.830  18.924  65.968  0.00  0.00    -0.216 NA
ATOM      4  C   UNL     1      -9.904  19.658  67.105  0.00  0.00    +0.201 A 
ATOM      5  N   UNL     1      -9.929  18.756  68.116  0.00  0.00    -0.202 NA
ENDROOT
BRANCH   2   6
ATOM      6  C   UNL     1     -10.593  16.694  65.286  0.00  0.00    +0.305 C 
ATOM      7  O   UNL     1     -11.329  16.905  64.304  0.00  0.00    -0.265 OA
ATOM      8  N   UNL     1      -9.986  15.428  65.453  0.00  0.00    -0.082 NA
ENDBRANCH   2   6
BRANCH   1  10
ATOM      9  N   UNL     1     -10.920  16.086  69.298  0.00  0.00    -0.076 NA
ATOM     10  N   UNL     1     -11.354  16.795  68.324  0.00  0.00    -0.111 NA
BRANCH   9  12
ATOM     11  C   UNL     1     -10.294  13.784  68.525  0.00  0.00    +0.136 C 
ATOM     12  N   UNL     1      -9.949  15.141  68.918  0.00  0.00    -0.211 N 
ATOM     13  C   UNL     1      -8.595  15.411  69.390  0.00  0.00    +0.136 C 
ENDBRANCH   9  12
ENDBRANCH   1  10
TORSDOF 3
ENDMDL
MODEL 8
REMARK VINA RESULT:      -4.4      2.163      3.865
REMARK  Name = 
REMARK  3 active torsions:
REMARK  status: ('A' for Active; 'I' for Inactive)
REMARK    1  A    between atoms: N_2  and  N_4
REMARK    2  A    between atoms: N_5  and  C_6
REMARK    3  A    between atoms: C_10  and  C_11
REMARK                            x       y       z     vdW  Elec       q    Type
REMARK                         _______ _______ _______ _____ _____    ______ ____
ROOT
ATOM      1  C   UNL     1     -11.494  12.872  67.740  0.00  0.00    +0.209 A 
ATOM      2  C   UNL     1     -11.981  14.039  67.161  0.00  0.00    +0.177 A 
ATOM      3  N   UNL     1     -11.827  15.056  68.043  0.00  0.00    -0.216 NA
ATOM      4  C   UNL     1     -11.824  14.458  69.259  0.00  0.00    +0.201 A 
ATOM      5  N   UNL     1     -11.343  13.209  69.045  0.00  0.00    -0.202 NA
ENDROOT
BRANCH   2   6
ATOM      6  C   UNL     1     -12.072  14.285  65.726  0.00  0.00    +0.305 C 
ATOM      7  O   UNL     1     -13.148  14.039  65.148  0.00  0.00    -0.265 OA
ATOM      8  N   UNL     1     -10.956  14.729  64.981  0.00  0.00    -0.082 NA
ENDBRANCH   2   6
BRANCH   1  10
ATOM      9  N   UNL     1     -11.195  10.681  67.185  0.00  0.00    -0.076 NA
ATOM     10  N   UNL     1     -12.060  11.609  67.356  0.00  0.00    -0.111 NA
BRANCH   9  12
ATOM     11  C   UNL     1     -10.568  10.993  64.777  0.00  0.00    +0.136 C 
ATOM     12  N   UNL     1     -10.241  10.976  66.193  0.00  0.00    -0.211 N 
ATOM     13  C   UNL     1      -8.849  10.786  66.589  0.00  0.00    +0.136 C 
ENDBRANCH   9  12
ENDBRANCH   1  10
TORSDOF 3
ENDMDL
MODEL 9
REMARK VINA RESULT:      -4.4      2.863      4.575
REMARK  Name = 
REMARK  3 active torsions:
REMARK  status: ('A' for Active; 'I' for Inactive)
REMARK    1  A    between atoms: N_2  and  N_4
REMARK    2  A    between atoms: N_5  and  C_6
REMARK    3  A    between atoms: C_10  and  C_11
REMARK                            x       y       z     vdW  Elec       q    Type
REMARK                         _______ _______ _______ _____ _____    ______ ____
ROOT
ATOM      1  C   UNL     1     -10.225  16.824  66.189  0.00  0.00    +0.209 A 
ATOM      2  C   UNL     1     -10.851  15.966  67.086  0.00  0.00    +0.177 A 
ATOM      3  N   UNL     1     -11.078  14.783  66.466  0.00  0.00    -0.216 NA
ATOM      4  C   UNL     1     -11.150  15.095  65.149  0.00  0.00    +0.201 A 
ATOM      5  N   UNL     1     -10.377  16.197  64.996  0.00  0.00    -0.202 NA
ENDROOT
BRANCH   2   6
ATOM      6  C   UNL     1     -10.747  16.055  68.538  0.00  0.00    +0.305 C 
ATOM      7  O   UNL     1     -11.758  16.388  69.187  0.00  0.00    -0.265 OA
ATOM      8  N   UNL     1      -9.521  15.836  69.206  0.00  0.00    -0.082 NA
ENDBRANCH   2   6
BRANCH   1  10
ATOM      9  N   UNL     1      -9.397  18.941  66.009  0.00  0.00    -0.076 NA
ATOM     10  N   UNL     1     -10.424  18.241  66.317  0.00  0.00    -0.111 NA
BRANCH   9  12
ATOM     11  C   UNL     1      -8.153  19.064  68.183  0.00  0.00    +0.136 C 
ATOM     12  N   UNL     1      -8.264  18.655  66.793  0.00  0.00    -0.211 N 
ATOM     13  C   UNL     1      -7.042  18.373  66.046  0.00  0.00    +0.136 C 
ENDBRANCH   9  12
ENDBRANCH   1  10
TORSDOF 3
ENDMDL
