MODEL 1
REMARK VINA RESULT:      -6.2      0.000      0.000
REMARK  Name = 
REMARK  2 active torsions:
REMARK  status: ('A' for Active; 'I' for Inactive)
REMARK    1  A    between atoms: N_10  and  C_11
REMARK    2  A    between atoms: C_14  and  C_15
REMARK                            x       y       z     vdW  Elec       q    Type
REMARK                         _______ _______ _______ _____ _____    ______ ____
ROOT
ATOM      1  O   UNL     1     -10.117  19.522  65.748  0.00  0.00    -0.263 OA
ATOM      2  C   UNL     1     -10.263  18.781  66.325  0.00  0.00    +0.301 A 
ATOM      3  C   UNL     1     -10.610  17.523  65.846  0.00  0.00    +0.175 A 
ATOM      4  N   UNL     1     -11.117  17.131  64.659  0.00  0.00    -0.217 NA
ATOM      5  C   UNL     1     -10.969  15.790  64.615  0.00  0.00    +0.182 A 
ATOM      6  N   UNL     1     -10.814  15.343  65.844  0.00  0.00    -0.271 N 
ATOM      7  C   UNL     1     -10.473  16.373  66.617  0.00  0.00    +0.171 A 
ATOM      8  N   UNL     1     -10.140  16.469  67.909  0.00  0.00    -0.205 NA
ATOM      9  C   UNL     1     -10.078  17.702  68.434  0.00  0.00    +0.203 A 
ATOM     10  N   UNL     1      -9.944  18.794  67.643  0.00  0.00    -0.184 NA
ENDROOT
BRANCH   6  11
ATOM     11  C   UNL     1     -10.312  13.882  66.203  0.00  0.00    +0.207 C 
ATOM     12  O   UNL     1     -10.434  13.400  64.766  0.00  0.00    -0.335 OA
ATOM     13  C   UNL     1     -11.125  12.093  65.050  0.00  0.00    +0.150 C 
ATOM     14  C   UNL     1     -12.468  12.955  65.458  0.00  0.00    +0.037 C 
ATOM     15  C   UNL     1     -11.829  13.428  66.675  0.00  0.00    +0.057 C 
BRANCH  13  16
ATOM     16  C   UNL     1     -11.635  11.968  63.484  0.00  0.00    +0.211 C 
ATOM     17  O   UNL     1     -13.007  12.203  63.673  0.00  0.00    -0.218 OA
ENDBRANCH  13  16
ENDBRANCH   6  11
TORSDOF 2
ENDMDL
MODEL 2
REMARK VINA RESULT:      -6.0      1.659      5.455
REMARK  Name = 
REMARK  2 active torsions:
REMARK  status: ('A' for Active; 'I' for Inactive)
REMARK    1  A    between atoms: N_10  and  C_11
REMARK    2  A    between atoms: C_14  and  C_15
REMARK                            x       y       z     vdW  Elec       q    Type
REMARK                         _______ _______ _______ _____ _____    ______ ____
ROOT
ATOM      1  O   UNL     1     -12.530  13.853  63.612  0.00  0.00    -0.263 OA
ATOM      2  C   UNL     1     -12.157  13.774  64.482  0.00  0.00    +0.301 A 
ATOM      3  C   UNL     1     -11.494  14.825  65.106  0.00  0.00    +0.175 A 
ATOM      4  N   UNL     1     -10.951  15.955  64.609  0.00  0.00    -0.217 NA
ATOM      5  C   UNL     1     -10.720  16.756  65.670  0.00  0.00    +0.182 A 
ATOM      6  N   UNL     1     -10.688  16.015  66.758  0.00  0.00    -0.271 N 
ATOM      7  C   UNL     1     -11.270  14.849  66.478  0.00  0.00    +0.171 A 
ATOM      8  N   UNL     1     -11.558  13.775  67.223  0.00  0.00    -0.205 NA
ATOM      9  C   UNL     1     -11.939  12.666  66.573  0.00  0.00    +0.203 A 
ATOM     10  N   UNL     1     -12.408  12.724  65.303  0.00  0.00    -0.184 NA
ENDROOT
BRANCH   6  11
ATOM     11  C   UNL     1     -10.746  16.595  68.233  0.00  0.00    +0.207 C 
ATOM     12  O   UNL     1     -10.780  18.037  67.750  0.00  0.00    -0.335 OA
ATOM     13  C   UNL     1      -9.752  18.592  68.700  0.00  0.00    +0.150 C 
ATOM     14  C   UNL     1      -8.607  17.757  67.861  0.00  0.00    +0.037 C 
ATOM     15  C   UNL     1      -9.104  16.495  68.384  0.00  0.00    +0.057 C 
BRANCH  13  16
ATOM     16  C   UNL     1      -9.528  19.926  67.752  0.00  0.00    +0.211 C 
ATOM     17  O   UNL     1     -10.720  19.880  67.010  0.00  0.00    -0.218 OA
ENDBRANCH  13  16
ENDBRANCH   6  11
TORSDOF 2
ENDMDL
MODEL 3
REMARK VINA RESULT:      -6.0      4.298      5.451
REMARK  Name = 
REMARK  2 active torsions:
REMARK  status: ('A' for Active; 'I' for Inactive)
REMARK    1  A    between atoms: N_10  and  C_11
REMARK    2  A    between atoms: C_14  and  C_15
REMARK                            x       y       z     vdW  Elec       q    Type
REMARK                         _______ _______ _______ _____ _____    ______ ____
ROOT
ATOM      1  O   UNL     1     -13.680  15.372  72.958  0.00  0.00    -0.263 OA
ATOM      2  C   UNL     1     -13.496  14.667  72.347  0.00  0.00    +0.301 A 
ATOM      3  C   UNL     1     -12.907  14.890  71.108  0.00  0.00    +0.175 A 
ATOM      4  N   UNL     1     -12.779  16.014  70.373  0.00  0.00    -0.217 NA
ATOM      5  C   UNL     1     -11.866  15.734  69.420  0.00  0.00    +0.182 A 
ATOM      6  N   UNL     1     -11.781  14.427  69.289  0.00  0.00    -0.271 N 
ATOM      7  C   UNL     1     -12.311  13.869  70.376  0.00  0.00    +0.171 A 
ATOM      8  N   UNL     1     -12.424  12.599  70.783  0.00  0.00    -0.205 NA
ATOM      9  C   UNL     1     -13.229  12.363  71.830  0.00  0.00    +0.203 A 
ATOM     10  N   UNL     1     -13.577  13.356  72.685  0.00  0.00    -0.184 NA
ENDROOT
BRANCH   6  11
ATOM     11  C   UNL     1     -10.621  13.684  68.502  0.00  0.00    +0.207 C 
ATOM     12  O   UNL     1     -10.372  14.872  67.586  0.00  0.00    -0.335 OA
ATOM     13  C   UNL     1     -10.304  14.113  66.287  0.00  0.00    +0.150 C 
ATOM     14  C   UNL     1     -11.924  13.849  66.420  0.00  0.00    +0.037 C 
ATOM     15  C   UNL     1     -11.712  12.925  67.521  0.00  0.00    +0.057 C 
BRANCH  13  16
ATOM     16  C   UNL     1     -10.562  15.491  65.414  0.00  0.00    +0.211 C 
ATOM     17  O   UNL     1      -9.346  16.149  65.665  0.00  0.00    -0.218 OA
ENDBRANCH  13  16
ENDBRANCH   6  11
TORSDOF 2
ENDMDL
MODEL 4
REMARK VINA RESULT:      -6.0      4.270      5.806
REMARK  Name = 
REMARK  2 active torsions:
REMARK  status: ('A' for Active; 'I' for Inactive)
REMARK    1  A    between atoms: N_10  and  C_11
REMARK    2  A    between atoms: C_14  and  C_15
REMARK                            x       y       z     vdW  Elec       q    Type
REMARK                         _______ _______ _______ _____ _____    ______ ____
ROOT
ATOM      1  O   UNL     1     -14.051  13.316  72.513  0.00  0.00    -0.263 OA
ATOM      2  C   UNL     1     -13.382  13.988  72.450  0.00  0.00    +0.301 A 
ATOM      3  C   UNL     1     -12.625  14.180  71.300  0.00  0.00    +0.175 A 
ATOM      4  N   UNL     1     -12.394  13.376  70.242  0.00  0.00    -0.217 NA
ATOM      5  C   UNL     1     -11.859  14.162  69.285  0.00  0.00    +0.182 A 
ATOM      6  N   UNL     1     -11.374  15.246  69.854  0.00  0.00    -0.271 N 
ATOM      7  C   UNL     1     -11.920  15.355  71.065  0.00  0.00    +0.171 A 
ATOM      8  N   UNL     1     -11.830  16.286  72.022  0.00  0.00    -0.205 NA
ATOM      9  C   UNL     1     -12.330  15.972  73.227  0.00  0.00    +0.203 A 
ATOM     10  N   UNL     1     -13.232  14.970  73.373  0.00  0.00    -0.184 NA
ENDROOT
BRANCH   6  11
ATOM     11  C   UNL     1     -10.938  16.550  69.061  0.00  0.00    +0.207 C 
ATOM     12  O   UNL     1     -11.196  15.908  67.706  0.00  0.00    -0.335 OA
ATOM     13  C   UNL     1      -9.925  16.349  67.030  0.00  0.00    +0.150 C 
ATOM     14  C   UNL     1      -9.111  15.291  67.994  0.00  0.00    +0.037 C 
ATOM     15  C   UNL     1      -9.343  16.129  69.159  0.00  0.00    +0.057 C 
BRANCH  13  16
ATOM     16  C   UNL     1     -10.099  15.203  65.854  0.00  0.00    +0.211 C 
ATOM     17  O   UNL     1     -10.597  16.012  64.820  0.00  0.00    -0.218 OA
ENDBRANCH  13  16
ENDBRANCH   6  11
TORSDOF 2
ENDMDL
MODEL 5
REMARK VINA RESULT:      -5.7      2.688      5.643
REMARK  Name = 
REMARK  2 active torsions:
REMARK  status: ('A' for Active; 'I' for Inactive)
REMARK    1  A    between atoms: N_10  and  C_11
REMARK    2  A    between atoms: C_14  and  C_15
REMARK                            x       y       z     vdW  Elec       q    Type
REMARK                         _______ _______ _______ _____ _____    ______ ____
ROOT
ATOM      1  O   UNL     1     -13.103  12.012  63.275  0.00  0.00    -0.263 OA
ATOM      2  C   UNL     1     -12.244  12.130  63.665  0.00  0.00    +0.301 A 
ATOM      3  C   UNL     1     -12.039  12.927  64.785  0.00  0.00    +0.175 A 
ATOM      4  N   UNL     1     -12.795  13.897  65.338  0.00  0.00    -0.217 NA
ATOM      5  C   UNL     1     -12.280  14.117  66.566  0.00  0.00    +0.182 A 
ATOM      6  N   UNL     1     -11.045  13.662  66.592  0.00  0.00    -0.271 N 
ATOM      7  C   UNL     1     -10.893  12.824  65.567  0.00  0.00    +0.171 A 
ATOM      8  N   UNL     1      -9.878  12.049  65.169  0.00  0.00    -0.205 NA
ATOM      9  C   UNL     1      -9.971  11.499  63.949  0.00  0.00    +0.203 A 
ATOM     10  N   UNL     1     -11.168  11.379  63.324  0.00  0.00    -0.184 NA
ENDROOT
BRANCH   6  11
ATOM     11  C   UNL     1     -10.201  13.451  67.919  0.00  0.00    +0.207 C 
ATOM     12  O   UNL     1     -11.112  14.353  68.737  0.00  0.00    -0.335 OA
ATOM     13  C   UNL     1     -10.038  15.145  69.434  0.00  0.00    +0.150 C 
ATOM     14  C   UNL     1      -9.706  15.862  67.989  0.00  0.00    +0.037 C 
ATOM     15  C   UNL     1      -9.130  14.629  67.477  0.00  0.00    +0.057 C 
BRANCH  13  16
ATOM     16  C   UNL     1     -11.108  16.341  69.824  0.00  0.00    +0.211 C 
ATOM     17  O   UNL     1     -11.295  16.902  68.550  0.00  0.00    -0.218 OA
ENDBRANCH  13  16
ENDBRANCH   6  11
TORSDOF 2
ENDMDL
MODEL 6
REMARK VINA RESULT:      -5.6      3.702      5.145
REMARK  Name = 
REMARK  2 active torsions:
REMARK  status: ('A' for Active; 'I' for Inactive)
REMARK    1  A    between atoms: N_10  and  C_11
REMARK    2  A    between atoms: C_14  and  C_15
REMARK                            x       y       z     vdW  Elec       q    Type
REMARK                         _______ _______ _______ _____ _____    ______ ____
ROOT
ATOM      1  O   UNL     1     -10.702  14.168  64.640  0.00  0.00    -0.263 OA
ATOM      2  C   UNL     1     -10.763  14.775  65.369  0.00  0.00    +0.301 A 
ATOM      3  C   UNL     1     -11.262  14.399  66.611  0.00  0.00    +0.175 A 
ATOM      4  N   UNL     1     -12.020  13.349  66.985  0.00  0.00    -0.217 NA
ATOM      5  C   UNL     1     -11.951  13.299  68.331  0.00  0.00    +0.182 A 
ATOM      6  N   UNL     1     -11.569  14.477  68.777  0.00  0.00    -0.271 N 
ATOM      7  C   UNL     1     -11.026  15.146  67.760  0.00  0.00    +0.171 A 
ATOM      8  N   UNL     1     -10.430  16.341  67.673  0.00  0.00    -0.205 NA
ATOM      9  C   UNL     1     -10.201  16.820  66.441  0.00  0.00    +0.203 A 
ATOM     10  N   UNL     1     -10.179  15.999  65.362  0.00  0.00    -0.184 NA
ENDROOT
BRANCH   6  11
ATOM     11  C   UNL     1     -11.076  14.752  70.260  0.00  0.00    +0.207 C 
ATOM     12  O   UNL     1     -11.961  13.661  70.842  0.00  0.00    -0.335 OA
ATOM     13  C   UNL     1     -12.512  14.446  72.002  0.00  0.00    +0.150 C 
ATOM     14  C   UNL     1     -13.375  15.337  70.918  0.00  0.00    +0.037 C 
ATOM     15  C   UNL     1     -12.163  15.982  70.441  0.00  0.00    +0.057 C 
BRANCH  13  16
ATOM     16  C   UNL     1     -13.765  13.386  72.186  0.00  0.00    +0.211 C 
ATOM     17  O   UNL     1     -13.102  12.193  71.854  0.00  0.00    -0.218 OA
ENDBRANCH  13  16
ENDBRANCH   6  11
TORSDOF 2
ENDMDL
MODEL 7
REMARK VINA RESULT:      -5.5      4.833      7.165
REMARK  Name = 
REMARK  2 active torsions:
REMARK  status: ('A' for Active; 'I' for Inactive)
REMARK    1  A    between atoms: N_10  and  C_11
REMARK    2  A    between atoms: C_14  and  C_15
REMARK                            x       y       z     vdW  Elec       q    Type
REMARK                         _______ _______ _______ _____ _____    ______ ____
ROOT
ATOM      1  O   UNL     1     -11.083  10.719  67.422  0.00  0.00    -0.263 OA
ATOM      2  C   UNL     1     -11.439  11.601  67.423  0.00  0.00    +0.301 A 
ATOM      3  C   UNL     1     -11.800  12.256  68.594  0.00  0.00    +0.175 A 
ATOM      4  N   UNL     1     -12.059  11.789  69.832  0.00  0.00    -0.217 NA
ATOM      5  C   UNL     1     -12.052  12.864  70.647  0.00  0.00    +0.182 A 
ATOM      6  N   UNL     1     -12.236  13.945  69.917  0.00  0.00    -0.271 N 
ATOM      7  C   UNL     1     -11.972  13.635  68.648  0.00  0.00    +0.171 A 
ATOM      8  N   UNL     1     -11.938  14.360  67.524  0.00  0.00    -0.205 NA
ATOM      9  C   UNL     1     -11.865  13.686  66.366  0.00  0.00    +0.203 A 
ATOM     10  N   UNL     1     -11.434  12.402  66.328  0.00  0.00    -0.184 NA
ENDROOT
BRANCH   6  11
ATOM     11  C   UNL     1     -11.993  15.424  70.439  0.00  0.00    +0.207 C 
ATOM     12  O   UNL     1     -11.567  14.952  71.820  0.00  0.00    -0.335 OA
ATOM     13  C   UNL     1     -12.382  15.927  72.627  0.00  0.00    +0.150 C 
ATOM     14  C   UNL     1     -13.729  15.106  72.155  0.00  0.00    +0.037 C 
ATOM     15  C   UNL     1     -13.595  15.608  70.797  0.00  0.00    +0.057 C 
BRANCH  13  16
ATOM     16  C   UNL     1     -12.242  14.995  73.983  0.00  0.00    +0.211 C 
ATOM     17  O   UNL     1     -12.536  15.965  74.956  0.00  0.00    -0.218 OA
ENDBRANCH  13  16
ENDBRANCH   6  11
TORSDOF 2
ENDMDL
MODEL 8
REMARK VINA RESULT:      -5.4      3.799      5.021
REMARK  Name = 
REMARK  2 active torsions:
REMARK  status: ('A' for Active; 'I' for Inactive)
REMARK    1  A    between atoms: N_10  and  C_11
REMARK    2  A    between atoms: C_14  and  C_15
REMARK                            x       y       z     vdW  Elec       q    Type
REMARK                         _______ _______ _______ _____ _____    ______ ____
ROOT
ATOM      1  O   UNL     1     -13.562  12.890  72.376  0.00  0.00    -0.263 OA
ATOM      2  C   UNL     1     -13.104  13.615  71.965  0.00  0.00    +0.301 A 
ATOM      3  C   UNL     1     -12.468  13.492  70.735  0.00  0.00    +0.175 A 
ATOM      4  N   UNL     1     -12.063  12.406  70.047  0.00  0.00    -0.217 NA
ATOM      5  C   UNL     1     -11.796  12.835  68.796  0.00  0.00    +0.182 A 
ATOM      6  N   UNL     1     -11.605  14.137  68.829  0.00  0.00    -0.271 N 
ATOM      7  C   UNL     1     -12.119  14.599  69.968  0.00  0.00    +0.171 A 
ATOM      8  N   UNL     1     -12.253  15.832  70.471  0.00  0.00    -0.205 NA
ATOM      9  C   UNL     1     -12.606  15.930  71.761  0.00  0.00    +0.203 A 
ATOM     10  N   UNL     1     -13.195  14.894  72.407  0.00  0.00    -0.184 NA
ENDROOT
BRANCH   6  11
ATOM     11  C   UNL     1     -11.569  15.065  67.542  0.00  0.00    +0.207 C 
ATOM     12  O   UNL     1     -12.339  14.061  66.698  0.00  0.00    -0.335 OA
ATOM     13  C   UNL     1     -11.469  14.120  65.471  0.00  0.00    +0.150 C 
ATOM     14  C   UNL     1     -10.301  13.338  66.330  0.00  0.00    +0.037 C 
ATOM     15  C   UNL     1     -10.062  14.521  67.139  0.00  0.00    +0.057 C 
BRANCH  13  16
ATOM     16  C   UNL     1     -12.074  12.688  64.916  0.00  0.00    +0.211 C 
ATOM     17  O   UNL     1     -12.638  13.133  63.709  0.00  0.00    -0.218 OA
ENDBRANCH  13  16
ENDBRANCH   6  11
TORSDOF 2
ENDMDL
MODEL 9
REMARK VINA RESULT:      -5.3      2.054      5.991
REMARK  Name = 
REMARK  2 active torsions:
REMARK  status: ('A' for Active; 'I' for Inactive)
REMARK    1  A    between atoms: N_10  and  C_11
REMARK    2  A    between atoms: C_14  and  C_15
REMARK                            x       y       z     vdW  Elec       q    Type
REMARK                         _______ _______ _______ _____ _____    ______ ____
ROOT
ATOM      1  O   UNL     1     -12.012  12.059  67.201  0.00  0.00    -0.263 OA
ATOM      2  C   UNL     1     -11.948  12.829  66.646  0.00  0.00    +0.301 A 
ATOM      3  C   UNL     1     -11.349  14.008  67.075  0.00  0.00    +0.175 A 
ATOM      4  N   UNL     1     -11.059  14.461  68.312  0.00  0.00    -0.217 NA
ATOM      5  C   UNL     1     -10.213  15.498  68.141  0.00  0.00    +0.182 A 
ATOM      6  N   UNL     1     -10.334  15.940  66.907  0.00  0.00    -0.271 N 
ATOM      7  C   UNL     1     -10.929  14.991  66.186  0.00  0.00    +0.171 A 
ATOM      8  N   UNL     1     -11.230  14.892  64.886  0.00  0.00    -0.205 NA
ATOM      9  C   UNL     1     -12.048  13.892  64.523  0.00  0.00    +0.203 A 
ATOM     10  N   UNL     1     -12.226  12.809  65.319  0.00  0.00    -0.184 NA
ENDROOT
BRANCH   6  11
ATOM     11  C   UNL     1      -9.313  16.939  66.215  0.00  0.00    +0.207 C 
ATOM     12  O   UNL     1      -8.789  17.452  67.547  0.00  0.00    -0.335 OA
ATOM     13  C   UNL     1      -8.816  18.922  67.221  0.00  0.00    +0.150 C 
ATOM     14  C   UNL     1     -10.461  18.845  67.269  0.00  0.00    +0.037 C 
ATOM     15  C   UNL     1     -10.490  18.084  66.031  0.00  0.00    +0.057 C 
BRANCH  13  16
ATOM     16  C   UNL     1      -8.751  19.326  68.821  0.00  0.00    +0.211 C 
ATOM     17  O   UNL     1      -7.392  19.670  68.912  0.00  0.00    -0.218 OA
ENDBRANCH  13  16
ENDBRANCH   6  11
TORSDOF 2
ENDMDL
