MODEL 1
REMARK VINA RESULT:      -7.0      0.000      0.000
REMARK  Name = 
REMARK  2 active torsions:
REMARK  status: ('A' for Active; 'I' for Inactive)
REMARK    1  A    between atoms: C_6  and  C_7
REMARK    2  A    between atoms: C_7  and  N_8
REMARK                            x       y       z     vdW  Elec       q    Type
REMARK                         _______ _______ _______ _____ _____    ______ ____
ROOT
ATOM      1  N   UNL     1     -12.324  13.753  69.965  0.00  0.00    -0.270 N 
ATOM      2  C   UNL     1     -12.153  13.868  68.546  0.00  0.00    +0.250 C 
ATOM      3  O   UNL     1     -11.823  14.997  68.076  0.00  0.00    -0.270 OA
ATOM      4  C   UNL     1     -11.974  12.656  67.734  0.00  0.00    +0.067 A 
ATOM      5  C   UNL     1     -11.697  12.496  66.382  0.00  0.00    +0.021 A 
ATOM      6  C   UNL     1     -11.028  11.297  66.185  0.00  0.00    +0.060 A 
ATOM      7  N   UNL     1     -11.056  10.643  67.374  0.00  0.00    -0.328 N 
ATOM      8  C   UNL     1     -10.111   9.577  67.693  0.00  0.00    +0.130 C 
ATOM      9  C   UNL     1     -10.317  11.112  65.011  0.00  0.00    +0.017 A 
ATOM     10  C   UNL     1     -10.199  12.187  64.139  0.00  0.00    +0.001 A 
ATOM     11  C   UNL     1     -11.250  13.094  64.148  0.00  0.00    +0.000 A 
ATOM     12  C   UNL     1     -11.967  13.339  65.310  0.00  0.00    +0.002 A 
ATOM     13  C   UNL     1     -11.469  11.507  68.332  0.00  0.00    +0.043 A 
ATOM     14  C   UNL     1     -11.272  11.584  69.813  0.00  0.00    +0.065 C 
ATOM     15  C   UNL     1     -12.375  12.380  70.463  0.00  0.00    +0.100 C 
ENDROOT
BRANCH   1  16
ATOM     16  C   UNL     1     -11.697  14.775  70.800  0.00  0.00    +0.141 C 
BRANCH  16  19
ATOM     17  C   UNL     1     -14.797  15.143  71.431  0.00  0.00    +0.053 C 
ATOM     18  C   UNL     1     -13.673  15.345  72.380  0.00  0.00    +0.076 A 
ATOM     19  C   UNL     1     -12.384  14.896  72.119  0.00  0.00    +0.094 A 
ATOM     20  N   UNL     1     -11.723  15.096  73.285  0.00  0.00    -0.225 NA
ATOM     21  C   UNL     1     -12.472  15.920  74.056  0.00  0.00    +0.198 A 
ATOM     22  N   UNL     1     -13.656  16.169  73.456  0.00  0.00    -0.227 NA
ENDBRANCH  16  19
ENDBRANCH   1  16
TORSDOF 2
ENDMDL
MODEL 2
REMARK VINA RESULT:      -7.0      2.026      6.609
REMARK  Name = 
REMARK  2 active torsions:
REMARK  status: ('A' for Active; 'I' for Inactive)
REMARK    1  A    between atoms: C_6  and  C_7
REMARK    2  A    between atoms: C_7  and  N_8
REMARK                            x       y       z     vdW  Elec       q    Type
REMARK                         _______ _______ _______ _____ _____    ______ ____
ROOT
ATOM      1  N   UNL     1     -10.348  13.621  67.043  0.00  0.00    -0.270 N 
ATOM      2  C   UNL     1     -11.023  14.351  68.076  0.00  0.00    +0.250 C 
ATOM      3  O   UNL     1     -11.615  15.424  67.756  0.00  0.00    -0.270 OA
ATOM      4  C   UNL     1     -11.350  13.684  69.344  0.00  0.00    +0.067 A 
ATOM      5  C   UNL     1     -12.071  14.124  70.448  0.00  0.00    +0.021 A 
ATOM      6  C   UNL     1     -12.636  13.035  71.095  0.00  0.00    +0.060 A 
ATOM      7  N   UNL     1     -12.118  11.928  70.506  0.00  0.00    -0.328 N 
ATOM      8  C   UNL     1     -12.771  10.624  70.600  0.00  0.00    +0.130 C 
ATOM      9  C   UNL     1     -13.693  13.247  71.964  0.00  0.00    +0.017 A 
ATOM     10  C   UNL     1     -14.227  14.528  72.048  0.00  0.00    +0.001 A 
ATOM     11  C   UNL     1     -13.343  15.570  71.803  0.00  0.00    +0.000 A 
ATOM     12  C   UNL     1     -12.290  15.415  70.913  0.00  0.00    +0.002 A 
ATOM     13  C   UNL     1     -11.486  12.300  69.367  0.00  0.00    +0.043 A 
ATOM     14  C   UNL     1     -11.151  11.598  68.090  0.00  0.00    +0.065 C 
ATOM     15  C   UNL     1      -9.979  12.254  67.405  0.00  0.00    +0.100 C 
ENDROOT
BRANCH   1  16
ATOM     16  C   UNL     1     -10.742  13.895  65.663  0.00  0.00    +0.141 C 
BRANCH  16  19
ATOM     17  C   UNL     1      -9.640  11.515  63.854  0.00  0.00    +0.053 C 
ATOM     18  C   UNL     1     -11.064  11.885  64.055  0.00  0.00    +0.076 A 
ATOM     19  C   UNL     1     -11.478  12.741  65.068  0.00  0.00    +0.094 A 
ATOM     20  N   UNL     1     -12.831  12.663  65.033  0.00  0.00    -0.225 NA
ATOM     21  C   UNL     1     -13.188  12.079  63.865  0.00  0.00    +0.198 A 
ATOM     22  N   UNL     1     -12.088  11.678  63.191  0.00  0.00    -0.227 NA
ENDBRANCH  16  19
ENDBRANCH   1  16
TORSDOF 2
ENDMDL
MODEL 3
REMARK VINA RESULT:      -6.9      3.515      6.233
REMARK  Name = 
REMARK  2 active torsions:
REMARK  status: ('A' for Active; 'I' for Inactive)
REMARK    1  A    between atoms: C_6  and  C_7
REMARK    2  A    between atoms: C_7  and  N_8
REMARK                            x       y       z     vdW  Elec       q    Type
REMARK                         _______ _______ _______ _____ _____    ______ ____
ROOT
ATOM      1  N   UNL     1     -10.132  15.334  67.437  0.00  0.00    -0.270 N 
ATOM      2  C   UNL     1     -10.909  15.677  68.591  0.00  0.00    +0.250 C 
ATOM      3  O   UNL     1     -11.601  16.738  68.549  0.00  0.00    -0.270 OA
ATOM      4  C   UNL     1     -11.200  14.653  69.604  0.00  0.00    +0.067 A 
ATOM      5  C   UNL     1     -11.994  14.695  70.743  0.00  0.00    +0.021 A 
ATOM      6  C   UNL     1     -12.460  13.420  71.030  0.00  0.00    +0.060 A 
ATOM      7  N   UNL     1     -11.812  12.578  70.187  0.00  0.00    -0.328 N 
ATOM      8  C   UNL     1     -12.326  11.246  69.879  0.00  0.00    +0.130 C 
ATOM      9  C   UNL     1     -13.558  13.281  71.862  0.00  0.00    +0.017 A 
ATOM     10  C   UNL     1     -14.225  14.430  72.267  0.00  0.00    +0.001 A 
ATOM     11  C   UNL     1     -13.449  15.576  72.372  0.00  0.00    +0.000 A 
ATOM     12  C   UNL     1     -12.361  15.777  71.536  0.00  0.00    +0.002 A 
ATOM     13  C   UNL     1     -11.190  13.313  69.234  0.00  0.00    +0.043 A 
ATOM     14  C   UNL     1     -10.747  13.033  67.834  0.00  0.00    +0.065 C 
ATOM     15  C   UNL     1      -9.631  13.961  67.425  0.00  0.00    +0.100 C 
ENDROOT
BRANCH   1  16
ATOM     16  C   UNL     1     -10.512  15.948  66.166  0.00  0.00    +0.141 C 
BRANCH  16  19
ATOM     17  C   UNL     1      -7.430  16.682  66.499  0.00  0.00    +0.053 C 
ATOM     18  C   UNL     1      -8.560  17.640  66.394  0.00  0.00    +0.076 A 
ATOM     19  C   UNL     1      -9.827  17.259  65.970  0.00  0.00    +0.094 A 
ATOM     20  N   UNL     1     -10.493  18.431  65.827  0.00  0.00    -0.225 NA
ATOM     21  C   UNL     1      -9.781  19.397  66.455  0.00  0.00    +0.198 A 
ATOM     22  N   UNL     1      -8.612  18.894  66.907  0.00  0.00    -0.227 NA
ENDBRANCH  16  19
ENDBRANCH   1  16
TORSDOF 2
ENDMDL
MODEL 4
REMARK VINA RESULT:      -6.8      4.462      5.111
REMARK  Name = 
REMARK  2 active torsions:
REMARK  status: ('A' for Active; 'I' for Inactive)
REMARK    1  A    between atoms: C_6  and  C_7
REMARK    2  A    between atoms: C_7  and  N_8
REMARK                            x       y       z     vdW  Elec       q    Type
REMARK                         _______ _______ _______ _____ _____    ______ ____
ROOT
ATOM      1  N   UNL     1      -9.050  16.261  66.885  0.00  0.00    -0.270 N 
ATOM      2  C   UNL     1      -9.908  15.543  65.988  0.00  0.00    +0.250 C 
ATOM      3  O   UNL     1     -10.234  16.103  64.900  0.00  0.00    -0.270 OA
ATOM      4  C   UNL     1     -10.066  14.090  66.140  0.00  0.00    +0.067 A 
ATOM      5  C   UNL     1     -10.744  13.159  65.362  0.00  0.00    +0.021 A 
ATOM      6  C   UNL     1     -10.144  11.916  65.499  0.00  0.00    +0.060 A 
ATOM      7  N   UNL     1      -9.224  12.042  66.488  0.00  0.00    -0.328 N 
ATOM      8  C   UNL     1      -8.110  11.108  66.632  0.00  0.00    +0.130 C 
ATOM      9  C   UNL     1     -10.390  10.945  64.543  0.00  0.00    +0.017 A 
ATOM     10  C   UNL     1     -11.125  11.302  63.419  0.00  0.00    +0.001 A 
ATOM     11  C   UNL     1     -12.058  12.313  63.600  0.00  0.00    +0.000 A 
ATOM     12  C   UNL     1     -11.838  13.328  64.521  0.00  0.00    +0.002 A 
ATOM     13  C   UNL     1      -9.058  13.359  66.759  0.00  0.00    +0.043 A 
ATOM     14  C   UNL     1      -7.940  14.165  67.339  0.00  0.00    +0.065 C 
ATOM     15  C   UNL     1      -8.455  15.447  67.942  0.00  0.00    +0.100 C 
ENDROOT
BRANCH   1  16
ATOM     16  C   UNL     1      -8.265  17.359  66.325  0.00  0.00    +0.141 C 
BRANCH  16  19
ATOM     17  C   UNL     1      -7.531  19.187  68.829  0.00  0.00    +0.053 C 
ATOM     18  C   UNL     1      -8.719  19.329  67.949  0.00  0.00    +0.076 A 
ATOM     19  C   UNL     1      -8.823  18.685  66.723  0.00  0.00    +0.094 A 
ATOM     20  N   UNL     1      -9.936  19.220  66.163  0.00  0.00    -0.225 NA
ATOM     21  C   UNL     1     -10.622  19.870  67.133  0.00  0.00    +0.198 A 
ATOM     22  N   UNL     1      -9.920  19.859  68.286  0.00  0.00    -0.227 NA
ENDBRANCH  16  19
ENDBRANCH   1  16
TORSDOF 2
ENDMDL
MODEL 5
REMARK VINA RESULT:      -6.8      3.568      4.723
REMARK  Name = 
REMARK  2 active torsions:
REMARK  status: ('A' for Active; 'I' for Inactive)
REMARK    1  A    between atoms: C_6  and  C_7
REMARK    2  A    between atoms: C_7  and  N_8
REMARK                            x       y       z     vdW  Elec       q    Type
REMARK                         _______ _______ _______ _____ _____    ______ ____
ROOT
ATOM      1  N   UNL     1     -10.973  15.763  68.061  0.00  0.00    -0.270 N 
ATOM      2  C   UNL     1     -10.680  14.648  67.209  0.00  0.00    +0.250 C 
ATOM      3  O   UNL     1      -9.659  14.723  66.462  0.00  0.00    -0.270 OA
ATOM      4  C   UNL     1     -11.292  13.341  67.484  0.00  0.00    +0.067 A 
ATOM      5  C   UNL     1     -11.104  12.101  66.886  0.00  0.00    +0.021 A 
ATOM      6  C   UNL     1     -11.379  11.098  67.805  0.00  0.00    +0.060 A 
ATOM      7  N   UNL     1     -11.906  11.711  68.894  0.00  0.00    -0.328 N 
ATOM      8  C   UNL     1     -11.919  11.074  70.209  0.00  0.00    +0.130 C 
ATOM      9  C   UNL     1     -10.894   9.823  67.568  0.00  0.00    +0.017 A 
ATOM     10  C   UNL     1     -10.043   9.634  66.486  0.00  0.00    +0.001 A 
ATOM     11  C   UNL     1     -10.235  10.487  65.408  0.00  0.00    +0.000 A 
ATOM     12  C   UNL     1     -10.684  11.786  65.599  0.00  0.00    +0.002 A 
ATOM     13  C   UNL     1     -11.707  13.046  68.778  0.00  0.00    +0.043 A 
ATOM     14  C   UNL     1     -11.602  14.167  69.761  0.00  0.00    +0.065 C 
ATOM     15  C   UNL     1     -11.947  15.485  69.115  0.00  0.00    +0.100 C 
ENDROOT
BRANCH   1  16
ATOM     16  C   UNL     1      -9.883  16.693  68.347  0.00  0.00    +0.141 C 
BRANCH  16  19
ATOM     17  C   UNL     1      -7.712  17.678  66.234  0.00  0.00    +0.053 C 
ATOM     18  C   UNL     1      -8.869  18.459  66.740  0.00  0.00    +0.076 A 
ATOM     19  C   UNL     1      -9.921  17.873  67.433  0.00  0.00    +0.094 A 
ATOM     20  N   UNL     1     -10.839  18.865  67.540  0.00  0.00    -0.225 NA
ATOM     21  C   UNL     1     -10.228  20.035  67.240  0.00  0.00    +0.198 A 
ATOM     22  N   UNL     1      -8.959  19.808  66.836  0.00  0.00    -0.227 NA
ENDBRANCH  16  19
ENDBRANCH   1  16
TORSDOF 2
ENDMDL
MODEL 6
REMARK VINA RESULT:      -6.7      3.291      5.510
REMARK  Name = 
REMARK  2 active torsions:
REMARK  status: ('A' for Active; 'I' for Inactive)
REMARK    1  A    between atoms: C_6  and  C_7
REMARK    2  A    between atoms: C_7  and  N_8
REMARK                            x       y       z     vdW  Elec       q    Type
REMARK                         _______ _______ _______ _____ _____    ______ ____
ROOT
ATOM      1  N   UNL     1     -10.739  15.409  68.361  0.00  0.00    -0.270 N 
ATOM      2  C   UNL     1     -10.627  13.982  68.446  0.00  0.00    +0.250 C 
ATOM      3  O   UNL     1      -9.505  13.457  68.179  0.00  0.00    -0.270 OA
ATOM      4  C   UNL     1     -11.636  13.216  69.190  0.00  0.00    +0.067 A 
ATOM      5  C   UNL     1     -11.707  11.864  69.502  0.00  0.00    +0.021 A 
ATOM      6  C   UNL     1     -12.436  11.696  70.671  0.00  0.00    +0.060 A 
ATOM      7  N   UNL     1     -12.960  12.911  70.972  0.00  0.00    -0.328 N 
ATOM      8  C   UNL     1     -13.413  13.246  72.320  0.00  0.00    +0.130 C 
ATOM      9  C   UNL     1     -12.309  10.511  71.374  0.00  0.00    +0.017 A 
ATOM     10  C   UNL     1     -11.358   9.592  70.948  0.00  0.00    +0.001 A 
ATOM     11  C   UNL     1     -11.080   9.595  69.588  0.00  0.00    +0.000 A 
ATOM     12  C   UNL     1     -11.158  10.767  68.848  0.00  0.00    +0.002 A 
ATOM     13  C   UNL     1     -12.361  13.845  70.195  0.00  0.00    +0.043 A 
ATOM     14  C   UNL     1     -12.124  15.315  70.338  0.00  0.00    +0.065 C 
ATOM     15  C   UNL     1     -11.936  15.964  68.990  0.00  0.00    +0.100 C 
ENDROOT
BRANCH   1  16
ATOM     16  C   UNL     1      -9.501  16.183  68.413  0.00  0.00    +0.141 C 
BRANCH  16  19
ATOM     17  C   UNL     1      -9.437  19.308  69.027  0.00  0.00    +0.053 C 
ATOM     18  C   UNL     1      -9.806  18.669  67.739  0.00  0.00    +0.076 A 
ATOM     19  C   UNL     1      -9.539  17.334  67.463  0.00  0.00    +0.094 A 
ATOM     20  N   UNL     1      -9.843  17.201  66.149  0.00  0.00    -0.225 NA
ATOM     21  C   UNL     1     -10.562  18.285  65.774  0.00  0.00    +0.198 A 
ATOM     22  N   UNL     1     -10.636  19.170  66.792  0.00  0.00    -0.227 NA
ENDBRANCH  16  19
ENDBRANCH   1  16
TORSDOF 2
ENDMDL
MODEL 7
REMARK VINA RESULT:      -6.7      4.493      5.651
REMARK  Name = 
REMARK  2 active torsions:
REMARK  status: ('A' for Active; 'I' for Inactive)
REMARK    1  A    between atoms: C_6  and  C_7
REMARK    2  A    between atoms: C_7  and  N_8
REMARK                            x       y       z     vdW  Elec       q    Type
REMARK                         _______ _______ _______ _____ _____    ______ ____
ROOT
ATOM      1  N   UNL     1     -10.508  17.266  66.824  0.00  0.00    -0.270 N 
ATOM      2  C   UNL     1     -10.916  16.330  65.817  0.00  0.00    +0.250 C 
ATOM      3  O   UNL     1     -10.885  16.706  64.607  0.00  0.00    -0.270 OA
ATOM      4  C   UNL     1     -10.975  14.897  66.137  0.00  0.00    +0.067 A 
ATOM      5  C   UNL     1     -11.238  13.793  65.336  0.00  0.00    +0.021 A 
ATOM      6  C   UNL     1     -10.608  12.676  65.865  0.00  0.00    +0.060 A 
ATOM      7  N   UNL     1     -10.119  13.050  67.074  0.00  0.00    -0.328 N 
ATOM      8  C   UNL     1      -9.044  12.314  67.735  0.00  0.00    +0.130 C 
ATOM      9  C   UNL     1     -10.402  11.575  65.051  0.00  0.00    +0.017 A 
ATOM     10  C   UNL     1     -10.717  11.686  63.703  0.00  0.00    +0.001 A 
ATOM     11  C   UNL     1     -11.748  12.563  63.392  0.00  0.00    +0.000 A 
ATOM     12  C   UNL     1     -11.970  13.699  64.158  0.00  0.00    +0.002 A 
ATOM     13  C   UNL     1     -10.189  14.399  67.170  0.00  0.00    +0.043 A 
ATOM     14  C   UNL     1      -9.435  15.423  67.957  0.00  0.00    +0.065 C 
ATOM     15  C   UNL     1     -10.254  16.676  68.136  0.00  0.00    +0.100 C 
ENDROOT
BRANCH   1  16
ATOM     16  C   UNL     1      -9.686  18.395  66.395  0.00  0.00    +0.141 C 
BRANCH  16  19
ATOM     17  C   UNL     1      -7.728  19.411  68.693  0.00  0.00    +0.053 C 
ATOM     18  C   UNL     1      -7.330  18.784  67.407  0.00  0.00    +0.076 A 
ATOM     19  C   UNL     1      -8.233  18.115  66.591  0.00  0.00    +0.094 A 
ATOM     20  N   UNL     1      -7.455  17.536  65.644  0.00  0.00    -0.225 NA
ATOM     21  C   UNL     1      -6.230  18.109  65.700  0.00  0.00    +0.198 A 
ATOM     22  N   UNL     1      -6.167  18.971  66.738  0.00  0.00    -0.227 NA
ENDBRANCH  16  19
ENDBRANCH   1  16
TORSDOF 2
ENDMDL
MODEL 8
REMARK VINA RESULT:      -6.6      2.734      7.047
REMARK  Name = 
REMARK  2 active torsions:
REMARK  status: ('A' for Active; 'I' for Inactive)
REMARK    1  A    between atoms: C_6  and  C_7
REMARK    2  A    between atoms: C_7  and  N_8
REMARK                            x       y       z     vdW  Elec       q    Type
REMARK                         _______ _______ _______ _____ _____    ______ ____
ROOT
ATOM      1  N   UNL     1     -11.286  10.112  69.170  0.00  0.00    -0.270 N 
ATOM      2  C   UNL     1     -11.857  10.915  70.212  0.00  0.00    +0.250 C 
ATOM      3  O   UNL     1     -11.857  10.449  71.390  0.00  0.00    -0.270 OA
ATOM      4  C   UNL     1     -12.059  12.354  69.993  0.00  0.00    +0.067 A 
ATOM      5  C   UNL     1     -12.493  13.356  70.853  0.00  0.00    +0.021 A 
ATOM      6  C   UNL     1     -11.963  14.573  70.450  0.00  0.00    +0.060 A 
ATOM      7  N   UNL     1     -11.362  14.352  69.254  0.00  0.00    -0.328 N 
ATOM      8  C   UNL     1     -10.340  15.250  68.724  0.00  0.00    +0.130 C 
ATOM      9  C   UNL     1     -11.932  15.621  71.354  0.00  0.00    +0.017 A 
ATOM     10  C   UNL     1     -12.314  15.369  72.666  0.00  0.00    +0.001 A 
ATOM     11  C   UNL     1     -13.255  14.364  72.841  0.00  0.00    +0.000 A 
ATOM     12  C   UNL     1     -13.301  13.275  71.981  0.00  0.00    +0.002 A 
ATOM     13  C   UNL     1     -11.273  13.015  69.055  0.00  0.00    +0.043 A 
ATOM     14  C   UNL     1     -10.362  12.145  68.250  0.00  0.00    +0.065 C 
ATOM     15  C   UNL     1     -11.022  10.829  67.924  0.00  0.00    +0.100 C 
ENDROOT
BRANCH   1  16
ATOM     16  C   UNL     1     -10.369   9.048  69.571  0.00  0.00    +0.141 C 
BRANCH  16  19
ATOM     17  C   UNL     1     -11.943   6.913  71.335  0.00  0.00    +0.053 C 
ATOM     18  C   UNL     1     -11.307   6.672  70.015  0.00  0.00    +0.076 A 
ATOM     19  C   UNL     1     -10.892   7.705  69.184  0.00  0.00    +0.094 A 
ATOM     20  N   UNL     1     -10.559   7.084  68.026  0.00  0.00    -0.225 NA
ATOM     21  C   UNL     1     -10.455   5.757  68.277  0.00  0.00    +0.198 A 
ATOM     22  N   UNL     1     -10.822   5.494  69.550  0.00  0.00    -0.227 NA
ENDBRANCH  16  19
ENDBRANCH   1  16
TORSDOF 2
ENDMDL
MODEL 9
REMARK VINA RESULT:      -6.6      4.240      7.191
REMARK  Name = 
REMARK  2 active torsions:
REMARK  status: ('A' for Active; 'I' for Inactive)
REMARK    1  A    between atoms: C_6  and  C_7
REMARK    2  A    between atoms: C_7  and  N_8
REMARK                            x       y       z     vdW  Elec       q    Type
REMARK                         _______ _______ _______ _____ _____    ______ ____
ROOT
ATOM      1  N   UNL     1      -9.989  13.770  66.327  0.00  0.00    -0.270 N 
ATOM      2  C   UNL     1     -10.339  15.158  66.243  0.00  0.00    +0.250 C 
ATOM      3  O   UNL     1     -11.568  15.458  66.165  0.00  0.00    -0.270 OA
ATOM      4  C   UNL     1      -9.359  16.181  66.631  0.00  0.00    +0.067 A 
ATOM      5  C   UNL     1      -9.473  17.562  66.735  0.00  0.00    +0.021 A 
ATOM      6  C   UNL     1      -8.570  18.032  67.678  0.00  0.00    +0.060 A 
ATOM      7  N   UNL     1      -7.785  16.978  68.014  0.00  0.00    -0.328 N 
ATOM      8  C   UNL     1      -7.022  16.948  69.259  0.00  0.00    +0.130 C 
ATOM      9  C   UNL     1      -8.768  19.288  68.226  0.00  0.00    +0.017 A 
ATOM     10  C   UNL     1      -9.935  19.969  67.904  0.00  0.00    +0.001 A 
ATOM     11  C   UNL     1     -10.472  19.694  66.653  0.00  0.00    +0.000 A 
ATOM     12  C   UNL     1     -10.331  18.438  66.080  0.00  0.00    +0.002 A 
ATOM     13  C   UNL     1      -8.347  15.847  67.525  0.00  0.00    +0.043 A 
ATOM     14  C   UNL     1      -8.281  14.404  67.913  0.00  0.00    +0.065 C 
ATOM     15  C   UNL     1      -8.611  13.515  66.741  0.00  0.00    +0.100 C 
ENDROOT
BRANCH   1  16
ATOM     16  C   UNL     1     -11.030  12.841  66.759  0.00  0.00    +0.141 C 
BRANCH  16  19
ATOM     17  C   UNL     1      -9.824  10.377  65.140  0.00  0.00    +0.053 C 
ATOM     18  C   UNL     1     -10.964  11.233  64.725  0.00  0.00    +0.076 A 
ATOM     19  C   UNL     1     -11.609  12.097  65.601  0.00  0.00    +0.094 A 
ATOM     20  N   UNL     1     -12.686  12.532  64.903  0.00  0.00    -0.225 NA
ATOM     21  C   UNL     1     -12.495  12.219  63.599  0.00  0.00    +0.198 A 
ATOM     22  N   UNL     1     -11.365  11.493  63.456  0.00  0.00    -0.227 NA
ENDBRANCH  16  19
ENDBRANCH   1  16
TORSDOF 2
ENDMDL
