MODEL 1
REMARK VINA RESULT:      -6.2      0.000      0.000
REMARK  Name = 
REMARK  7 active torsions:
REMARK  status: ('A' for Active; 'I' for Inactive)
REMARK    1  A    between atoms: C_10  and  C_11
REMARK    2  A    between atoms: C_11  and  C_12
REMARK    3  A    between atoms: C_12  and  N_13
REMARK    4  A    between atoms: N_13  and  C_14
REMARK    5  A    between atoms: C_14  and  C_15
REMARK    6  A    between atoms: C_18  and  C_19
REMARK    7  A    between atoms: C_20  and  C_21
REMARK                            x       y       z     vdW  Elec       q    Type
REMARK                         _______ _______ _______ _____ _____    ______ ____
ROOT
ATOM      1  N   UNL     1      -4.576  17.328  68.678  0.00  0.00    -0.213 NA
ENDROOT
BRANCH   1   2
ATOM      2  C   UNL     1      -4.383  18.749  68.840  0.00  0.00    +0.094 C 
BRANCH   2   3
ATOM      3  C   UNL     1      -5.664  19.491  69.115  0.00  0.00    +0.046 C 
BRANCH   3   6
ATOM      4  C   UNL     1      -4.982  21.435  66.683  0.00  0.00    +0.052 C 
ATOM      5  C   UNL     1      -6.057  20.400  66.780  0.00  0.00    +0.055 A 
ATOM      6  C   UNL     1      -6.481  19.695  67.888  0.00  0.00    -0.006 A 
ATOM      7  C   UNL     1      -7.816  19.339  67.743  0.00  0.00    +0.015 A 
ATOM      8  C   UNL     1      -8.122  19.691  66.435  0.00  0.00    +0.081 A 
ATOM      9  C   UNL     1      -9.461  19.631  66.069  0.00  0.00    +0.019 A 
ATOM     10  C   UNL     1     -10.426  19.769  67.054  0.00  0.00    +0.002 A 
ATOM     11  C   UNL     1     -10.156  19.394  68.364  0.00  0.00    +0.000 A 
ATOM     12  C   UNL     1      -8.839  19.053  68.638  0.00  0.00    +0.001 A 
ATOM     13  N   UNL     1      -7.001  20.161  65.838  0.00  0.00    -0.250 NA
ENDBRANCH   3   6
ENDBRANCH   2   3
ENDBRANCH   1   2
BRANCH   1  14
ATOM     14  C   UNL     1      -5.555  16.838  69.636  0.00  0.00    +0.115 C 
BRANCH  14  15
ATOM     15  C   UNL     1      -6.485  15.917  68.909  0.00  0.00    -0.005 A 
ATOM     16  C   UNL     1      -6.492  15.870  67.521  0.00  0.00    -0.003 A 
ATOM     17  C   UNL     1      -7.671  15.535  66.866  0.00  0.00    -0.000 A 
ATOM     18  C   UNL     1      -8.889  15.466  67.531  0.00  0.00    +0.000 A 
ATOM     19  C   UNL     1      -8.841  15.333  68.899  0.00  0.00    -0.000 A 
ATOM     20  C   UNL     1      -7.632  15.497  69.561  0.00  0.00    -0.003 A 
BRANCH  18  21
ATOM     21  C   UNL     1     -10.074  16.008  66.854  0.00  0.00    +0.002 C 
ATOM     22  C   UNL     1     -10.134  16.159  65.547  0.00  0.00    +0.025 C 
BRANCH  22  23
ATOM     23  C   UNL     1     -11.266  15.798  64.722  0.00  0.00    +0.110 C 
ATOM     24  N   UNL     1     -11.945  14.561  64.775  0.00  0.00    -0.198 NA
ATOM     25  O   UNL     1     -12.589  14.067  63.682  0.00  0.00    -0.402 OA
ATOM     26  O   UNL     1     -11.686  16.659  63.900  0.00  0.00    -0.536 OA
ENDBRANCH  22  23
ENDBRANCH  18  21
ENDBRANCH  14  15
ENDBRANCH   1  14
TORSDOF 7
ENDMDL
MODEL 2
REMARK VINA RESULT:      -6.1      4.731      7.886
REMARK  Name = 
REMARK  7 active torsions:
REMARK  status: ('A' for Active; 'I' for Inactive)
REMARK    1  A    between atoms: C_10  and  C_11
REMARK    2  A    between atoms: C_11  and  C_12
REMARK    3  A    between atoms: C_12  and  N_13
REMARK    4  A    between atoms: N_13  and  C_14
REMARK    5  A    between atoms: C_14  and  C_15
REMARK    6  A    between atoms: C_18  and  C_19
REMARK    7  A    between atoms: C_20  and  C_21
REMARK                            x       y       z     vdW  Elec       q    Type
REMARK                         _______ _______ _______ _____ _____    ______ ____
ROOT
ATOM      1  N   UNL     1      -9.984  14.856  65.374  0.00  0.00    -0.213 NA
ENDROOT
BRANCH   1   2
ATOM      2  C   UNL     1     -11.383  15.106  65.121  0.00  0.00    +0.094 C 
BRANCH   2   3
ATOM      3  C   UNL     1     -12.290  14.086  65.756  0.00  0.00    +0.046 C 
BRANCH   3   6
ATOM      4  C   UNL     1     -12.032  11.843  63.506  0.00  0.00    +0.052 C 
ATOM      5  C   UNL     1     -11.385  11.895  64.853  0.00  0.00    +0.055 A 
ATOM      6  C   UNL     1     -11.639  12.756  65.902  0.00  0.00    -0.006 A 
ATOM      7  C   UNL     1     -11.335  12.137  67.109  0.00  0.00    +0.015 A 
ATOM      8  C   UNL     1     -10.716  10.951  66.737  0.00  0.00    +0.081 A 
ATOM      9  C   UNL     1     -10.479  10.027  67.746  0.00  0.00    +0.019 A 
ATOM     10  C   UNL     1     -11.290  10.048  68.870  0.00  0.00    +0.002 A 
ATOM     11  C   UNL     1     -11.894  11.229  69.282  0.00  0.00    +0.000 A 
ATOM     12  C   UNL     1     -11.776  12.306  68.415  0.00  0.00    +0.001 A 
ATOM     13  N   UNL     1     -10.608  10.922  65.386  0.00  0.00    -0.250 NA
ENDBRANCH   3   6
ENDBRANCH   2   3
ENDBRANCH   1   2
BRANCH   1  14
ATOM     14  C   UNL     1      -9.307  16.090  65.742  0.00  0.00    +0.115 C 
BRANCH  14  15
ATOM     15  C   UNL     1      -9.293  16.175  67.236  0.00  0.00    -0.005 A 
ATOM     16  C   UNL     1      -9.280  15.023  68.011  0.00  0.00    -0.003 A 
ATOM     17  C   UNL     1      -9.860  15.054  69.273  0.00  0.00    -0.000 A 
ATOM     18  C   UNL     1     -10.644  16.120  69.697  0.00  0.00    +0.000 A 
ATOM     19  C   UNL     1     -10.500  17.305  69.014  0.00  0.00    -0.000 A 
ATOM     20  C   UNL     1      -9.776  17.330  67.830  0.00  0.00    -0.003 A 
BRANCH  18  21
ATOM     21  C   UNL     1     -11.863  15.818  70.459  0.00  0.00    +0.002 C 
ATOM     22  C   UNL     1     -11.897  14.897  71.399  0.00  0.00    +0.025 C 
BRANCH  22  23
ATOM     23  C   UNL     1     -12.528  15.056  72.692  0.00  0.00    +0.110 C 
ATOM     24  N   UNL     1     -12.364  16.172  73.541  0.00  0.00    -0.198 NA
ATOM     25  O   UNL     1     -12.498  16.052  74.891  0.00  0.00    -0.402 OA
ATOM     26  O   UNL     1     -13.291  14.131  73.085  0.00  0.00    -0.536 OA
ENDBRANCH  22  23
ENDBRANCH  18  21
ENDBRANCH  14  15
ENDBRANCH   1  14
TORSDOF 7
ENDMDL
MODEL 3
REMARK VINA RESULT:      -6.0      5.158      8.575
REMARK  Name = 
REMARK  7 active torsions:
REMARK  status: ('A' for Active; 'I' for Inactive)
REMARK    1  A    between atoms: C_10  and  C_11
REMARK    2  A    between atoms: C_11  and  C_12
REMARK    3  A    between atoms: C_12  and  N_13
REMARK    4  A    between atoms: N_13  and  C_14
REMARK    5  A    between atoms: C_14  and  C_15
REMARK    6  A    between atoms: C_18  and  C_19
REMARK    7  A    between atoms: C_20  and  C_21
REMARK                            x       y       z     vdW  Elec       q    Type
REMARK                         _______ _______ _______ _____ _____    ______ ____
ROOT
ATOM      1  N   UNL     1     -10.084  15.578  68.889  0.00  0.00    -0.213 NA
ENDROOT
BRANCH   1   2
ATOM      2  C   UNL     1     -10.621  15.542  70.228  0.00  0.00    +0.094 C 
BRANCH   2   3
ATOM      3  C   UNL     1     -12.124  15.453  70.260  0.00  0.00    +0.046 C 
BRANCH   3   6
ATOM      4  C   UNL     1     -12.711  15.477  73.392  0.00  0.00    +0.052 C 
ATOM      5  C   UNL     1     -13.030  14.415  72.389  0.00  0.00    +0.055 A 
ATOM      6  C   UNL     1     -12.611  14.310  71.078  0.00  0.00    -0.006 A 
ATOM      7  C   UNL     1     -12.574  12.975  70.696  0.00  0.00    +0.015 A 
ATOM      8  C   UNL     1     -13.162  12.301  71.758  0.00  0.00    +0.081 A 
ATOM      9  C   UNL     1     -13.082  10.914  71.740  0.00  0.00    +0.019 A 
ATOM     10  C   UNL     1     -12.037  10.319  71.052  0.00  0.00    +0.002 A 
ATOM     11  C   UNL     1     -11.453  10.958  69.965  0.00  0.00    +0.000 A 
ATOM     12  C   UNL     1     -11.857  12.266  69.741  0.00  0.00    +0.001 A 
ATOM     13  N   UNL     1     -13.578  13.210  72.674  0.00  0.00    -0.250 NA
ENDBRANCH   3   6
ENDBRANCH   2   3
ENDBRANCH   1   2
BRANCH   1  14
ATOM     14  C   UNL     1     -10.783  16.574  68.090  0.00  0.00    +0.115 C 
BRANCH  14  15
ATOM     15  C   UNL     1      -9.792  17.627  67.706  0.00  0.00    -0.005 A 
ATOM     16  C   UNL     1      -8.579  17.281  67.125  0.00  0.00    -0.003 A 
ATOM     17  C   UNL     1      -7.477  18.103  67.327  0.00  0.00    -0.000 A 
ATOM     18  C   UNL     1      -7.486  19.129  68.264  0.00  0.00    +0.000 A 
ATOM     19  C   UNL     1      -8.718  19.570  68.688  0.00  0.00    -0.000 A 
ATOM     20  C   UNL     1      -9.856  18.852  68.351  0.00  0.00    -0.003 A 
BRANCH  18  21
ATOM     21  C   UNL     1      -6.279  19.329  69.077  0.00  0.00    +0.002 C 
ATOM     22  C   UNL     1      -5.860  20.525  69.436  0.00  0.00    +0.025 C 
BRANCH  22  23
ATOM     23  C   UNL     1      -5.397  20.877  70.760  0.00  0.00    +0.110 C 
ATOM     24  N   UNL     1      -4.279  21.693  71.037  0.00  0.00    -0.198 NA
ATOM     25  O   UNL     1      -3.577  21.552  72.196  0.00  0.00    -0.402 OA
ATOM     26  O   UNL     1      -6.051  20.432  71.744  0.00  0.00    -0.536 OA
ENDBRANCH  22  23
ENDBRANCH  18  21
ENDBRANCH  14  15
ENDBRANCH   1  14
TORSDOF 7
ENDMDL
MODEL 4
REMARK VINA RESULT:      -5.9      4.207      7.859
REMARK  Name = 
REMARK  7 active torsions:
REMARK  status: ('A' for Active; 'I' for Inactive)
REMARK    1  A    between atoms: C_10  and  C_11
REMARK    2  A    between atoms: C_11  and  C_12
REMARK    3  A    between atoms: C_12  and  N_13
REMARK    4  A    between atoms: N_13  and  C_14
REMARK    5  A    between atoms: C_14  and  C_15
REMARK    6  A    between atoms: C_18  and  C_19
REMARK    7  A    between atoms: C_20  and  C_21
REMARK                            x       y       z     vdW  Elec       q    Type
REMARK                         _______ _______ _______ _____ _____    ______ ____
ROOT
ATOM      1  N   UNL     1      -9.146  16.750  65.763  0.00  0.00    -0.213 NA
ENDROOT
BRANCH   1   2
ATOM      2  C   UNL     1      -9.733  15.456  65.509  0.00  0.00    +0.094 C 
BRANCH   2   3
ATOM      3  C   UNL     1     -11.187  15.383  65.889  0.00  0.00    +0.046 C 
BRANCH   3   6
ATOM      4  C   UNL     1     -12.550  12.596  65.159  0.00  0.00    +0.052 C 
ATOM      5  C   UNL     1     -11.894  13.009  66.437  0.00  0.00    +0.055 A 
ATOM      6  C   UNL     1     -11.477  14.265  66.828  0.00  0.00    -0.006 A 
ATOM      7  C   UNL     1     -11.512  14.368  68.214  0.00  0.00    +0.015 A 
ATOM      8  C   UNL     1     -11.784  13.076  68.644  0.00  0.00    +0.081 A 
ATOM      9  C   UNL     1     -12.076  12.915  69.992  0.00  0.00    +0.019 A 
ATOM     10  C   UNL     1     -12.604  13.990  70.690  0.00  0.00    +0.002 A 
ATOM     11  C   UNL     1     -12.321  15.293  70.300  0.00  0.00    +0.000 A 
ATOM     12  C   UNL     1     -11.644  15.432  69.097  0.00  0.00    +0.001 A 
ATOM     13  N   UNL     1     -11.834  12.260  67.564  0.00  0.00    -0.250 NA
ENDBRANCH   3   6
ENDBRANCH   2   3
ENDBRANCH   1   2
BRANCH   1  14
ATOM     14  C   UNL     1     -10.187  17.746  65.967  0.00  0.00    +0.115 C 
BRANCH  14  15
ATOM     15  C   UNL     1      -9.626  18.818  66.848  0.00  0.00    -0.005 A 
ATOM     16  C   UNL     1      -8.579  19.619  66.410  0.00  0.00    -0.003 A 
ATOM     17  C   UNL     1      -7.694  20.141  67.346  0.00  0.00    -0.000 A 
ATOM     18  C   UNL     1      -7.685  19.714  68.668  0.00  0.00    +0.000 A 
ATOM     19  C   UNL     1      -8.816  19.078  69.122  0.00  0.00    -0.000 A 
ATOM     20  C   UNL     1      -9.797  18.696  68.217  0.00  0.00    -0.003 A 
BRANCH  18  21
ATOM     21  C   UNL     1      -6.382  19.520  69.318  0.00  0.00    +0.002 C 
ATOM     22  C   UNL     1      -5.650  20.527  69.748  0.00  0.00    +0.025 C 
BRANCH  22  23
ATOM     23  C   UNL     1      -4.972  20.573  71.024  0.00  0.00    +0.110 C 
ATOM     24  N   UNL     1      -4.354  21.718  71.572  0.00  0.00    -0.198 NA
ATOM     25  O   UNL     1      -3.310  21.606  72.439  0.00  0.00    -0.402 OA
ATOM     26  O   UNL     1      -4.941  19.511  71.707  0.00  0.00    -0.536 OA
ENDBRANCH  22  23
ENDBRANCH  18  21
ENDBRANCH  14  15
ENDBRANCH   1  14
TORSDOF 7
ENDMDL
MODEL 5
REMARK VINA RESULT:      -5.9      4.554      7.365
REMARK  Name = 
REMARK  7 active torsions:
REMARK  status: ('A' for Active; 'I' for Inactive)
REMARK    1  A    between atoms: C_10  and  C_11
REMARK    2  A    between atoms: C_11  and  C_12
REMARK    3  A    between atoms: C_12  and  N_13
REMARK    4  A    between atoms: N_13  and  C_14
REMARK    5  A    between atoms: C_14  and  C_15
REMARK    6  A    between atoms: C_18  and  C_19
REMARK    7  A    between atoms: C_20  and  C_21
REMARK                            x       y       z     vdW  Elec       q    Type
REMARK                         _______ _______ _______ _____ _____    ______ ____
ROOT
ATOM      1  N   UNL     1      -7.886  12.217  68.191  0.00  0.00    -0.213 NA
ENDROOT
BRANCH   1   2
ATOM      2  C   UNL     1      -7.946  10.976  67.456  0.00  0.00    +0.094 C 
BRANCH   2   3
ATOM      3  C   UNL     1      -9.286  10.298  67.552  0.00  0.00    +0.046 C 
BRANCH   3   6
ATOM      4  C   UNL     1     -11.916  10.870  69.258  0.00  0.00    +0.052 C 
ATOM      5  C   UNL     1     -11.435  11.559  68.021  0.00  0.00    +0.055 A 
ATOM      6  C   UNL     1     -10.409  11.197  67.173  0.00  0.00    -0.006 A 
ATOM      7  C   UNL     1     -10.662  11.671  65.891  0.00  0.00    +0.015 A 
ATOM      8  C   UNL     1     -11.776  12.486  66.043  0.00  0.00    +0.081 A 
ATOM      9  C   UNL     1     -12.379  12.944  64.879  0.00  0.00    +0.019 A 
ATOM     10  C   UNL     1     -12.235  12.199  63.719  0.00  0.00    +0.002 A 
ATOM     11  C   UNL     1     -11.114  11.401  63.528  0.00  0.00    +0.000 A 
ATOM     12  C   UNL     1     -10.270  11.269  64.621  0.00  0.00    +0.001 A 
ATOM     13  N   UNL     1     -12.104  12.532  67.357  0.00  0.00    -0.250 NA
ENDBRANCH   3   6
ENDBRANCH   2   3
ENDBRANCH   1   2
BRANCH   1  14
ATOM     14  C   UNL     1      -7.175  13.227  67.422  0.00  0.00    +0.115 C 
BRANCH  14  15
ATOM     15  C   UNL     1      -7.919  14.517  67.565  0.00  0.00    -0.005 A 
ATOM     16  C   UNL     1      -8.021  15.144  68.800  0.00  0.00    -0.003 A 
ATOM     17  C   UNL     1      -9.136  15.928  69.067  0.00  0.00    -0.000 A 
ATOM     18  C   UNL     1     -10.251  15.928  68.239  0.00  0.00    +0.000 A 
ATOM     19  C   UNL     1     -10.071  15.463  66.957  0.00  0.00    -0.000 A 
ATOM     20  C   UNL     1      -8.886  14.822  66.621  0.00  0.00    -0.003 A 
BRANCH  18  21
ATOM     21  C   UNL     1     -11.577  15.942  68.870  0.00  0.00    +0.002 C 
ATOM     22  C   UNL     1     -11.897  15.133  69.859  0.00  0.00    +0.025 C 
BRANCH  22  23
ATOM     23  C   UNL     1     -12.609  15.527  71.055  0.00  0.00    +0.110 C 
ATOM     24  N   UNL     1     -13.932  15.150  71.371  0.00  0.00    -0.198 NA
ATOM     25  O   UNL     1     -14.718  15.937  72.157  0.00  0.00    -0.402 OA
ATOM     26  O   UNL     1     -11.996  16.254  71.885  0.00  0.00    -0.536 OA
ENDBRANCH  22  23
ENDBRANCH  18  21
ENDBRANCH  14  15
ENDBRANCH   1  14
TORSDOF 7
ENDMDL
MODEL 6
REMARK VINA RESULT:      -5.8      5.349      8.062
REMARK  Name = 
REMARK  7 active torsions:
REMARK  status: ('A' for Active; 'I' for Inactive)
REMARK    1  A    between atoms: C_10  and  C_11
REMARK    2  A    between atoms: C_11  and  C_12
REMARK    3  A    between atoms: C_12  and  N_13
REMARK    4  A    between atoms: N_13  and  C_14
REMARK    5  A    between atoms: C_14  and  C_15
REMARK    6  A    between atoms: C_18  and  C_19
REMARK    7  A    between atoms: C_20  and  C_21
REMARK                            x       y       z     vdW  Elec       q    Type
REMARK                         _______ _______ _______ _____ _____    ______ ____
ROOT
ATOM      1  N   UNL     1     -10.086  15.350  69.009  0.00  0.00    -0.213 NA
ENDROOT
BRANCH   1   2
ATOM      2  C   UNL     1     -10.716  15.560  70.290  0.00  0.00    +0.094 C 
BRANCH   2   3
ATOM      3  C   UNL     1     -12.212  15.401  70.244  0.00  0.00    +0.046 C 
BRANCH   3   6
ATOM      4  C   UNL     1     -12.900  15.388  73.356  0.00  0.00    +0.052 C 
ATOM      5  C   UNL     1     -13.151  14.322  72.339  0.00  0.00    +0.055 A 
ATOM      6  C   UNL     1     -12.688  14.238  71.041  0.00  0.00    -0.006 A 
ATOM      7  C   UNL     1     -12.595  12.906  70.655  0.00  0.00    +0.015 A 
ATOM      8  C   UNL     1     -13.194  12.208  71.694  0.00  0.00    +0.081 A 
ATOM      9  C   UNL     1     -13.067  10.825  71.673  0.00  0.00    +0.019 A 
ATOM     10  C   UNL     1     -11.981  10.268  71.015  0.00  0.00    +0.002 A 
ATOM     11  C   UNL     1     -11.384  10.932  69.951  0.00  0.00    +0.000 A 
ATOM     12  C   UNL     1     -11.824  12.227  69.720  0.00  0.00    +0.001 A 
ATOM     13  N   UNL     1     -13.668  13.098  72.600  0.00  0.00    -0.250 NA
ENDBRANCH   3   6
ENDBRANCH   2   3
ENDBRANCH   1   2
BRANCH   1  14
ATOM     14  C   UNL     1     -10.939  15.842  67.937  0.00  0.00    +0.115 C 
BRANCH  14  15
ATOM     15  C   UNL     1     -10.958  14.807  66.857  0.00  0.00    -0.005 A 
ATOM     16  C   UNL     1     -12.117  14.095  66.577  0.00  0.00    -0.003 A 
ATOM     17  C   UNL     1     -12.010  12.806  66.070  0.00  0.00    -0.000 A 
ATOM     18  C   UNL     1     -10.800  12.124  66.044  0.00  0.00    +0.000 A 
ATOM     19  C   UNL     1      -9.658  12.884  66.145  0.00  0.00    -0.000 A 
ATOM     20  C   UNL     1      -9.756  14.225  66.487  0.00  0.00    -0.003 A 
BRANCH  18  21
ATOM     21  C   UNL     1     -10.806  10.698  66.396  0.00  0.00    +0.002 C 
ATOM     22  C   UNL     1      -9.806   9.894  66.100  0.00  0.00    +0.025 C 
BRANCH  22  23
ATOM     23  C   UNL     1      -9.233   8.919  67.002  0.00  0.00    +0.110 C 
ATOM     24  N   UNL     1      -9.228   7.523  66.789  0.00  0.00    -0.198 NA
ATOM     25  O   UNL     1      -9.198   6.653  67.837  0.00  0.00    -0.402 OA
ATOM     26  O   UNL     1      -8.685   9.350  68.055  0.00  0.00    -0.536 OA
ENDBRANCH  22  23
ENDBRANCH  18  21
ENDBRANCH  14  15
ENDBRANCH   1  14
TORSDOF 7
ENDMDL
MODEL 7
REMARK VINA RESULT:      -5.8      5.948      9.199
REMARK  Name = 
REMARK  7 active torsions:
REMARK  status: ('A' for Active; 'I' for Inactive)
REMARK    1  A    between atoms: C_10  and  C_11
REMARK    2  A    between atoms: C_11  and  C_12
REMARK    3  A    between atoms: C_12  and  N_13
REMARK    4  A    between atoms: N_13  and  C_14
REMARK    5  A    between atoms: C_14  and  C_15
REMARK    6  A    between atoms: C_18  and  C_19
REMARK    7  A    between atoms: C_20  and  C_21
REMARK                            x       y       z     vdW  Elec       q    Type
REMARK                         _______ _______ _______ _____ _____    ______ ____
ROOT
ATOM      1  N   UNL     1      -8.873  11.171  65.792  0.00  0.00    -0.213 NA
ENDROOT
BRANCH   1   2
ATOM      2  C   UNL     1      -8.789   9.820  66.294  0.00  0.00    +0.094 C 
BRANCH   2   3
ATOM      3  C   UNL     1     -10.132   9.155  66.429  0.00  0.00    +0.046 C 
BRANCH   3   6
ATOM      4  C   UNL     1     -10.860   6.178  67.302  0.00  0.00    +0.052 C 
ATOM      5  C   UNL     1     -10.523   7.350  68.167  0.00  0.00    +0.055 A 
ATOM      6  C   UNL     1     -10.397   8.678  67.813  0.00  0.00    -0.006 A 
ATOM      7  C   UNL     1     -10.699   9.490  68.900  0.00  0.00    +0.015 A 
ATOM      8  C   UNL     1     -10.826   8.605  69.961  0.00  0.00    +0.081 A 
ATOM      9  C   UNL     1     -11.325   9.122  71.150  0.00  0.00    +0.019 A 
ATOM     10  C   UNL     1     -12.142  10.241  71.096  0.00  0.00    +0.002 A 
ATOM     11  C   UNL     1     -12.013  11.159  70.062  0.00  0.00    +0.000 A 
ATOM     12  C   UNL     1     -11.162  10.793  69.028  0.00  0.00    +0.001 A 
ATOM     13  N   UNL     1     -10.544   7.355  69.521  0.00  0.00    -0.250 NA
ENDBRANCH   3   6
ENDBRANCH   2   3
ENDBRANCH   1   2
BRANCH   1  14
ATOM     14  C   UNL     1     -10.260  11.529  65.534  0.00  0.00    +0.115 C 
BRANCH  14  15
ATOM     15  C   UNL     1     -10.487  12.901  66.087  0.00  0.00    -0.005 A 
ATOM     16  C   UNL     1      -9.469  13.577  66.748  0.00  0.00    -0.003 A 
ATOM     17  C   UNL     1      -9.801  14.493  67.738  0.00  0.00    -0.000 A 
ATOM     18  C   UNL     1     -11.091  14.594  68.244  0.00  0.00    +0.000 A 
ATOM     19  C   UNL     1     -12.102  14.068  67.474  0.00  0.00    -0.000 A 
ATOM     20  C   UNL     1     -11.787  13.284  66.373  0.00  0.00    -0.003 A 
BRANCH  18  21
ATOM     21  C   UNL     1     -11.248  14.782  69.692  0.00  0.00    +0.002 C 
ATOM     22  C   UNL     1     -12.233  15.487  70.209  0.00  0.00    +0.025 C 
BRANCH  22  23
ATOM     23  C   UNL     1     -13.026  15.089  71.352  0.00  0.00    +0.110 C 
ATOM     24  N   UNL     1     -13.070  13.786  71.894  0.00  0.00    -0.198 NA
ATOM     25  O   UNL     1     -14.171  13.338  72.557  0.00  0.00    -0.402 OA
ATOM     26  O   UNL     1     -13.724  15.978  71.915  0.00  0.00    -0.536 OA
ENDBRANCH  22  23
ENDBRANCH  18  21
ENDBRANCH  14  15
ENDBRANCH   1  14
TORSDOF 7
ENDMDL
MODEL 8
REMARK VINA RESULT:      -5.8      1.632      2.013
REMARK  Name = 
REMARK  7 active torsions:
REMARK  status: ('A' for Active; 'I' for Inactive)
REMARK    1  A    between atoms: C_10  and  C_11
REMARK    2  A    between atoms: C_11  and  C_12
REMARK    3  A    between atoms: C_12  and  N_13
REMARK    4  A    between atoms: N_13  and  C_14
REMARK    5  A    between atoms: C_14  and  C_15
REMARK    6  A    between atoms: C_18  and  C_19
REMARK    7  A    between atoms: C_20  and  C_21
REMARK                            x       y       z     vdW  Elec       q    Type
REMARK                         _______ _______ _______ _____ _____    ______ ____
ROOT
ATOM      1  N   UNL     1      -6.351  15.462  67.158  0.00  0.00    -0.213 NA
ENDROOT
BRANCH   1   2
ATOM      2  C   UNL     1      -5.736  16.760  67.018  0.00  0.00    +0.094 C 
BRANCH   2   3
ATOM      3  C   UNL     1      -5.994  17.665  68.193  0.00  0.00    +0.046 C 
BRANCH   3   6
ATOM      4  C   UNL     1      -5.577  20.661  69.194  0.00  0.00    +0.052 C 
ATOM      5  C   UNL     1      -6.502  20.149  68.138  0.00  0.00    +0.055 A 
ATOM      6  C   UNL     1      -6.829  18.843  67.833  0.00  0.00    -0.006 A 
ATOM      7  C   UNL     1      -8.103  18.788  67.282  0.00  0.00    +0.015 A 
ATOM      8  C   UNL     1      -8.451  20.119  67.095  0.00  0.00    +0.081 A 
ATOM      9  C   UNL     1      -9.768  20.376  66.737  0.00  0.00    +0.019 A 
ATOM     10  C   UNL     1     -10.746  19.462  67.100  0.00  0.00    +0.002 A 
ATOM     11  C   UNL     1     -10.430  18.119  67.261  0.00  0.00    +0.000 A 
ATOM     12  C   UNL     1      -9.080  17.803  67.213  0.00  0.00    +0.001 A 
ATOM     13  N   UNL     1      -7.403  20.897  67.456  0.00  0.00    -0.250 NA
ENDBRANCH   3   6
ENDBRANCH   2   3
ENDBRANCH   1   2
BRANCH   1  14
ATOM     14  C   UNL     1      -6.435  15.090  68.562  0.00  0.00    +0.115 C 
BRANCH  14  15
ATOM     15  C   UNL     1      -7.757  14.422  68.779  0.00  0.00    -0.005 A 
ATOM     16  C   UNL     1      -8.188  13.412  67.928  0.00  0.00    -0.003 A 
ATOM     17  C   UNL     1      -9.552  13.233  67.735  0.00  0.00    -0.000 A 
ATOM     18  C   UNL     1     -10.487  14.160  68.178  0.00  0.00    +0.000 A 
ATOM     19  C   UNL     1     -10.075  15.036  69.155  0.00  0.00    -0.000 A 
ATOM     20  C   UNL     1      -8.729  15.110  69.486  0.00  0.00    -0.003 A 
BRANCH  18  21
ATOM     21  C   UNL     1     -11.618  14.472  67.296  0.00  0.00    +0.002 C 
ATOM     22  C   UNL     1     -11.470  14.674  66.003  0.00  0.00    +0.025 C 
BRANCH  22  23
ATOM     23  C   UNL     1     -12.327  14.125  64.975  0.00  0.00    +0.110 C 
ATOM     24  N   UNL     1     -12.875  12.824  64.988  0.00  0.00    -0.198 NA
ATOM     25  O   UNL     1     -13.183  12.180  63.828  0.00  0.00    -0.402 OA
ATOM     26  O   UNL     1     -12.615  14.869  63.997  0.00  0.00    -0.536 OA
ENDBRANCH  22  23
ENDBRANCH  18  21
ENDBRANCH  14  15
ENDBRANCH   1  14
TORSDOF 7
ENDMDL
MODEL 9
REMARK VINA RESULT:      -5.8      5.430      7.693
REMARK  Name = 
REMARK  7 active torsions:
REMARK  status: ('A' for Active; 'I' for Inactive)
REMARK    1  A    between atoms: C_10  and  C_11
REMARK    2  A    between atoms: C_11  and  C_12
REMARK    3  A    between atoms: C_12  and  N_13
REMARK    4  A    between atoms: N_13  and  C_14
REMARK    5  A    between atoms: C_14  and  C_15
REMARK    6  A    between atoms: C_18  and  C_19
REMARK    7  A    between atoms: C_20  and  C_21
REMARK                            x       y       z     vdW  Elec       q    Type
REMARK                         _______ _______ _______ _____ _____    ______ ____
ROOT
ATOM      1  N   UNL     1     -11.801  13.016  65.916  0.00  0.00    -0.213 NA
ENDROOT
BRANCH   1   2
ATOM      2  C   UNL     1     -12.044  14.021  66.923  0.00  0.00    +0.094 C 
BRANCH   2   3
ATOM      3  C   UNL     1     -12.008  13.474  68.324  0.00  0.00    +0.046 C 
BRANCH   3   6
ATOM      4  C   UNL     1      -9.332  15.182  68.607  0.00  0.00    +0.052 C 
ATOM      5  C   UNL     1     -10.638  15.367  69.311  0.00  0.00    +0.055 A 
ATOM      6  C   UNL     1     -11.731  14.525  69.341  0.00  0.00    -0.006 A 
ATOM      7  C   UNL     1     -12.439  14.707  70.523  0.00  0.00    +0.015 A 
ATOM      8  C   UNL     1     -11.841  15.813  71.111  0.00  0.00    +0.081 A 
ATOM      9  C   UNL     1     -12.218  16.109  72.414  0.00  0.00    +0.019 A 
ATOM     10  C   UNL     1     -12.689  15.082  73.218  0.00  0.00    +0.002 A 
ATOM     11  C   UNL     1     -13.320  13.979  72.657  0.00  0.00    +0.000 A 
ATOM     12  C   UNL     1     -13.284  13.899  71.272  0.00  0.00    +0.001 A 
ATOM     13  N   UNL     1     -10.883  16.285  70.276  0.00  0.00    -0.250 NA
ENDBRANCH   3   6
ENDBRANCH   2   3
ENDBRANCH   1   2
BRANCH   1  14
ATOM     14  C   UNL     1     -10.372  12.856  65.695  0.00  0.00    +0.115 C 
BRANCH  14  15
ATOM     15  C   UNL     1      -9.927  11.638  66.442  0.00  0.00    -0.005 A 
ATOM     16  C   UNL     1     -10.780  10.553  66.599  0.00  0.00    -0.003 A 
ATOM     17  C   UNL     1     -10.646   9.749  67.724  0.00  0.00    -0.000 A 
ATOM     18  C   UNL     1      -9.847  10.116  68.800  0.00  0.00    +0.000 A 
ATOM     19  C   UNL     1      -8.889  11.072  68.562  0.00  0.00    -0.000 A 
ATOM     20  C   UNL     1      -8.903  11.774  67.365  0.00  0.00    -0.003 A 
BRANCH  18  21
ATOM     21  C   UNL     1     -10.358   9.862  70.154  0.00  0.00    +0.002 C 
ATOM     22  C   UNL     1     -11.488  10.378  70.591  0.00  0.00    +0.025 C 
BRANCH  22  23
ATOM     23  C   UNL     1     -12.496   9.656  71.334  0.00  0.00    +0.110 C 
ATOM     24  N   UNL     1     -12.654   8.253  71.333  0.00  0.00    -0.198 NA
ATOM     25  O   UNL     1     -13.868   7.682  71.564  0.00  0.00    -0.402 OA
ATOM     26  O   UNL     1     -13.289  10.330  72.048  0.00  0.00    -0.536 OA
ENDBRANCH  22  23
ENDBRANCH  18  21
ENDBRANCH  14  15
ENDBRANCH   1  14
TORSDOF 7
ENDMDL
