MODEL 1
REMARK VINA RESULT:      -4.3      0.000      0.000
REMARK  Name = 
REMARK  4 active torsions:
REMARK  status: ('A' for Active; 'I' for Inactive)
REMARK    1  A    between atoms: CD_2  and  CG_4
REMARK    2  A    between atoms: CG_4  and  CB_5
REMARK    3  A    between atoms: CB_5  and  CA_6
REMARK    4  A    between atoms: CA_6  and  C_8
REMARK                            x       y       z     vdW  Elec       q    Type
REMARK                         _______ _______ _______ _____ _____    ______ ____
ROOT
ATOM      1  CB  GLN A   1     -11.206  14.636  66.532  0.00  0.00    +0.040 C 
ENDROOT
BRANCH   1   2
ATOM      2  CA  GLN A   1     -10.351  14.941  65.145  0.00  0.00    +0.195 C 
ATOM      3  N   GLN A   1      -9.111  15.500  65.966  0.00  0.00    -0.121 NA
BRANCH   2   4
ATOM      4  C   GLN A   1     -11.010  16.413  64.965  0.00  0.00    +0.382 C 
ATOM      5  OXT GLN A   1     -10.168  17.373  65.526  0.00  0.00    -0.244 OA
ATOM      6  O   GLN A   1     -11.543  16.663  63.885  0.00  0.00    -0.244 OA
ENDBRANCH   2   4
ENDBRANCH   1   2
BRANCH   1   7
ATOM      7  CG  GLN A   1     -12.519  14.192  65.933  0.00  0.00    +0.091 C 
BRANCH   7   9
ATOM      8  NE2 GLN A   1     -11.782  11.898  66.267  0.00  0.00    -0.088 NA
ATOM      9  CD  GLN A   1     -12.380  12.800  65.444  0.00  0.00    +0.261 C 
ATOM     10  OE1 GLN A   1     -13.133  12.341  64.534  0.00  0.00    -0.272 OA
ENDBRANCH   7   9
ENDBRANCH   1   7
TORSDOF 4
ENDMDL
MODEL 2
REMARK VINA RESULT:      -4.3      1.541      4.267
REMARK  Name = 
REMARK  4 active torsions:
REMARK  status: ('A' for Active; 'I' for Inactive)
REMARK    1  A    between atoms: CD_2  and  CG_4
REMARK    2  A    between atoms: CG_4  and  CB_5
REMARK    3  A    between atoms: CB_5  and  CA_6
REMARK    4  A    between atoms: CA_6  and  C_8
REMARK                            x       y       z     vdW  Elec       q    Type
REMARK                         _______ _______ _______ _____ _____    ______ ____
ROOT
ATOM      1  CB  GLN A   1     -10.769  13.935  65.282  0.00  0.00    +0.040 C 
ENDROOT
BRANCH   1   2
ATOM      2  CA  GLN A   1     -12.357  13.477  65.156  0.00  0.00    +0.195 C 
ATOM      3  N   GLN A   1     -12.086  12.121  65.937  0.00  0.00    -0.121 NA
BRANCH   2   4
ATOM      4  C   GLN A   1     -12.131  12.792  63.704  0.00  0.00    +0.382 C 
ATOM      5  OXT GLN A   1     -10.783  12.471  63.545  0.00  0.00    -0.244 OA
ATOM      6  O   GLN A   1     -12.973  11.979  63.327  0.00  0.00    -0.244 OA
ENDBRANCH   2   4
ENDBRANCH   1   2
BRANCH   1   7
ATOM      7  CG  GLN A   1     -10.926  15.189  66.106  0.00  0.00    +0.091 C 
BRANCH   7   9
ATOM      8  NE2 GLN A   1     -11.308  16.784  64.310  0.00  0.00    -0.088 NA
ATOM      9  CD  GLN A   1     -10.485  16.354  65.303  0.00  0.00    +0.261 C 
ATOM     10  OE1 GLN A   1      -9.637  17.182  65.751  0.00  0.00    -0.272 OA
ENDBRANCH   7   9
ENDBRANCH   1   7
TORSDOF 4
ENDMDL
MODEL 3
REMARK VINA RESULT:      -4.3      1.308      1.557
REMARK  Name = 
REMARK  4 active torsions:
REMARK  status: ('A' for Active; 'I' for Inactive)
REMARK    1  A    between atoms: CD_2  and  CG_4
REMARK    2  A    between atoms: CG_4  and  CB_5
REMARK    3  A    between atoms: CB_5  and  CA_6
REMARK    4  A    between atoms: CA_6  and  C_8
REMARK                            x       y       z     vdW  Elec       q    Type
REMARK                         _______ _______ _______ _____ _____    ______ ____
ROOT
ATOM      1  CB  GLN A   1     -10.998  14.544  66.595  0.00  0.00    +0.040 C 
ENDROOT
BRANCH   1   2
ATOM      2  CA  GLN A   1     -10.366  14.872  65.098  0.00  0.00    +0.195 C 
ATOM      3  N   GLN A   1      -9.735  16.240  65.603  0.00  0.00    -0.121 NA
BRANCH   2   4
ATOM      4  C   GLN A   1     -11.730  15.585  64.587  0.00  0.00    +0.382 C 
ATOM      5  OXT GLN A   1     -11.438  16.863  64.109  0.00  0.00    -0.244 OA
ATOM      6  O   GLN A   1     -12.524  14.893  63.953  0.00  0.00    -0.244 OA
ENDBRANCH   2   4
ENDBRANCH   1   2
BRANCH   1   7
ATOM      7  CG  GLN A   1     -10.436  13.160  66.814  0.00  0.00    +0.091 C 
BRANCH   7   9
ATOM      8  NE2 GLN A   1     -11.940  11.572  67.876  0.00  0.00    -0.088 NA
ATOM      9  CD  GLN A   1     -11.537  12.173  66.725  0.00  0.00    +0.261 C 
ATOM     10  OE1 GLN A   1     -12.358  12.183  65.760  0.00  0.00    -0.272 OA
ENDBRANCH   7   9
ENDBRANCH   1   7
TORSDOF 4
ENDMDL
MODEL 4
REMARK VINA RESULT:      -4.2      5.982      7.087
REMARK  Name = 
REMARK  4 active torsions:
REMARK  status: ('A' for Active; 'I' for Inactive)
REMARK    1  A    between atoms: CD_2  and  CG_4
REMARK    2  A    between atoms: CG_4  and  CB_5
REMARK    3  A    between atoms: CB_5  and  CA_6
REMARK    4  A    between atoms: CA_6  and  C_8
REMARK                            x       y       z     vdW  Elec       q    Type
REMARK                         _______ _______ _______ _____ _____    ______ ____
ROOT
ATOM      1  CB  GLN A   1     -12.893  14.935  70.843  0.00  0.00    +0.040 C 
ENDROOT
BRANCH   1   2
ATOM      2  CA  GLN A   1     -12.600  14.501  72.416  0.00  0.00    +0.195 C 
ATOM      3  N   GLN A   1     -14.001  13.761  72.531  0.00  0.00    -0.121 NA
BRANCH   2   4
ATOM      4  C   GLN A   1     -13.188  15.897  72.997  0.00  0.00    +0.382 C 
ATOM      5  OXT GLN A   1     -14.508  16.057  72.578  0.00  0.00    -0.244 OA
ATOM      6  O   GLN A   1     -12.905  16.187  74.158  0.00  0.00    -0.244 OA
ENDBRANCH   2   4
ENDBRANCH   1   2
BRANCH   1   7
ATOM      7  CG  GLN A   1     -11.735  15.876  70.616  0.00  0.00    +0.091 C 
BRANCH   7   9
ATOM      8  NE2 GLN A   1     -11.799  14.863  68.406  0.00  0.00    -0.088 NA
ATOM      9  CD  GLN A   1     -11.434  15.929  69.166  0.00  0.00    +0.261 C 
ATOM     10  OE1 GLN A   1     -11.256  17.032  68.568  0.00  0.00    -0.272 OA
ENDBRANCH   7   9
ENDBRANCH   1   7
TORSDOF 4
ENDMDL
MODEL 5
REMARK VINA RESULT:      -4.2      2.545      4.414
REMARK  Name = 
REMARK  4 active torsions:
REMARK  status: ('A' for Active; 'I' for Inactive)
REMARK    1  A    between atoms: CD_2  and  CG_4
REMARK    2  A    between atoms: CG_4  and  CB_5
REMARK    3  A    between atoms: CB_5  and  CA_6
REMARK    4  A    between atoms: CA_6  and  C_8
REMARK                            x       y       z     vdW  Elec       q    Type
REMARK                         _______ _______ _______ _____ _____    ______ ____
ROOT
ATOM      1  CB  GLN A   1     -10.972  15.688  66.500  0.00  0.00    +0.040 C 
ENDROOT
BRANCH   1   2
ATOM      2  CA  GLN A   1     -10.780  15.201  64.928  0.00  0.00    +0.195 C 
ATOM      3  N   GLN A   1     -11.257  16.611  64.374  0.00  0.00    -0.121 NA
BRANCH   2   4
ATOM      4  C   GLN A   1     -12.271  14.567  64.856  0.00  0.00    +0.382 C 
ATOM      5  OXT GLN A   1     -12.531  14.133  63.556  0.00  0.00    -0.244 OA
ATOM      6  O   GLN A   1     -12.625  13.851  65.791  0.00  0.00    -0.244 OA
ENDBRANCH   2   4
ENDBRANCH   1   2
BRANCH   1   7
ATOM      7  CG  GLN A   1     -10.141  16.948  66.483  0.00  0.00    +0.091 C 
BRANCH   7   9
ATOM      8  NE2 GLN A   1     -10.935  19.057  67.398  0.00  0.00    -0.088 NA
ATOM      9  CD  GLN A   1     -10.514  17.788  67.645  0.00  0.00    +0.261 C 
ATOM     10  OE1 GLN A   1     -10.852  17.272  68.752  0.00  0.00    -0.272 OA
ENDBRANCH   7   9
ENDBRANCH   1   7
TORSDOF 4
ENDMDL
MODEL 6
REMARK VINA RESULT:      -4.2      1.947      4.239
REMARK  Name = 
REMARK  4 active torsions:
REMARK  status: ('A' for Active; 'I' for Inactive)
REMARK    1  A    between atoms: CD_2  and  CG_4
REMARK    2  A    between atoms: CG_4  and  CB_5
REMARK    3  A    between atoms: CB_5  and  CA_6
REMARK    4  A    between atoms: CA_6  and  C_8
REMARK                            x       y       z     vdW  Elec       q    Type
REMARK                         _______ _______ _______ _____ _____    ______ ____
ROOT
ATOM      1  CB  GLN A   1     -10.622  13.455  64.633  0.00  0.00    +0.040 C 
ENDROOT
BRANCH   1   2
ATOM      2  CA  GLN A   1     -11.451  12.023  64.541  0.00  0.00    +0.195 C 
ATOM      3  N   GLN A   1     -12.819  12.726  64.941  0.00  0.00    -0.121 NA
BRANCH   2   4
ATOM      4  C   GLN A   1     -11.102  11.627  66.075  0.00  0.00    +0.382 C 
ATOM      5  OXT GLN A   1      -9.809  12.050  66.383  0.00  0.00    -0.244 OA
ATOM      6  O   GLN A   1     -11.985  11.793  66.914  0.00  0.00    -0.244 OA
ENDBRANCH   2   4
ENDBRANCH   1   2
BRANCH   1   7
ATOM      7  CG  GLN A   1     -11.779  14.424  64.622  0.00  0.00    +0.091 C 
BRANCH   7   9
ATOM      8  NE2 GLN A   1     -10.076  15.984  65.386  0.00  0.00    -0.088 NA
ATOM      9  CD  GLN A   1     -11.254  15.806  64.730  0.00  0.00    +0.261 C 
ATOM     10  OE1 GLN A   1     -11.606  16.712  63.919  0.00  0.00    -0.272 OA
ENDBRANCH   7   9
ENDBRANCH   1   7
TORSDOF 4
ENDMDL
MODEL 7
REMARK VINA RESULT:      -4.2      2.323      3.835
REMARK  Name = 
REMARK  4 active torsions:
REMARK  status: ('A' for Active; 'I' for Inactive)
REMARK    1  A    between atoms: CD_2  and  CG_4
REMARK    2  A    between atoms: CG_4  and  CB_5
REMARK    3  A    between atoms: CB_5  and  CA_6
REMARK    4  A    between atoms: CA_6  and  C_8
REMARK                            x       y       z     vdW  Elec       q    Type
REMARK                         _______ _______ _______ _____ _____    ______ ____
ROOT
ATOM      1  CB  GLN A   1      -9.891  16.079  66.183  0.00  0.00    +0.040 C 
ENDROOT
BRANCH   1   2
ATOM      2  CA  GLN A   1     -11.104  14.990  65.880  0.00  0.00    +0.195 C 
ATOM      3  N   GLN A   1     -10.084  13.943  65.258  0.00  0.00    -0.121 NA
BRANCH   2   4
ATOM      4  C   GLN A   1     -11.448  15.649  64.438  0.00  0.00    +0.382 C 
ATOM      5  OXT GLN A   1     -12.635  15.104  63.948  0.00  0.00    -0.244 OA
ATOM      6  O   GLN A   1     -11.266  16.859  64.314  0.00  0.00    -0.244 OA
ENDBRANCH   2   4
ENDBRANCH   1   2
BRANCH   1   7
ATOM      7  CG  GLN A   1      -9.811  15.964  67.685  0.00  0.00    +0.091 C 
BRANCH   7   9
ATOM      8  NE2 GLN A   1     -10.828  18.173  67.754  0.00  0.00    -0.088 NA
ATOM      9  CD  GLN A   1     -10.757  16.927  68.295  0.00  0.00    +0.261 C 
ATOM     10  OE1 GLN A   1     -11.752  16.536  68.975  0.00  0.00    -0.272 OA
ENDBRANCH   7   9
ENDBRANCH   1   7
TORSDOF 4
ENDMDL
MODEL 8
REMARK VINA RESULT:      -4.1      2.521      4.223
REMARK  Name = 
REMARK  4 active torsions:
REMARK  status: ('A' for Active; 'I' for Inactive)
REMARK    1  A    between atoms: CD_2  and  CG_4
REMARK    2  A    between atoms: CG_4  and  CB_5
REMARK    3  A    between atoms: CB_5  and  CA_6
REMARK    4  A    between atoms: CA_6  and  C_8
REMARK                            x       y       z     vdW  Elec       q    Type
REMARK                         _______ _______ _______ _____ _____    ______ ____
ROOT
ATOM      1  CB  GLN A   1     -11.796  14.351  66.552  0.00  0.00    +0.040 C 
ENDROOT
BRANCH   1   2
ATOM      2  CA  GLN A   1     -10.912  12.964  66.762  0.00  0.00    +0.195 C 
ATOM      3  N   GLN A   1     -11.994  12.092  65.993  0.00  0.00    -0.121 NA
BRANCH   2   4
ATOM      4  C   GLN A   1     -11.570  12.665  68.213  0.00  0.00    +0.382 C 
ATOM      5  OXT GLN A   1     -12.230  13.807  68.670  0.00  0.00    -0.244 OA
ATOM      6  O   GLN A   1     -12.115  11.574  68.371  0.00  0.00    -0.244 OA
ENDBRANCH   2   4
ENDBRANCH   1   2
BRANCH   1   7
ATOM      7  CG  GLN A   1     -10.799  15.177  65.777  0.00  0.00    +0.091 C 
BRANCH   7   9
ATOM      8  NE2 GLN A   1     -12.521  15.001  64.068  0.00  0.00    -0.088 NA
ATOM      9  CD  GLN A   1     -11.447  15.685  64.545  0.00  0.00    +0.261 C 
ATOM     10  OE1 GLN A   1     -11.325  16.893  64.184  0.00  0.00    -0.272 OA
ENDBRANCH   7   9
ENDBRANCH   1   7
TORSDOF 4
ENDMDL
MODEL 9
REMARK VINA RESULT:      -4.1      6.104      6.708
REMARK  Name = 
REMARK  4 active torsions:
REMARK  status: ('A' for Active; 'I' for Inactive)
REMARK    1  A    between atoms: CD_2  and  CG_4
REMARK    2  A    between atoms: CG_4  and  CB_5
REMARK    3  A    between atoms: CB_5  and  CA_6
REMARK    4  A    between atoms: CA_6  and  C_8
REMARK                            x       y       z     vdW  Elec       q    Type
REMARK                         _______ _______ _______ _____ _____    ______ ____
ROOT
ATOM      1  CB  GLN A   1     -12.524  15.565  71.049  0.00  0.00    +0.040 C 
ENDROOT
BRANCH   1   2
ATOM      2  CA  GLN A   1     -11.127  15.464  70.163  0.00  0.00    +0.195 C 
ATOM      3  N   GLN A   1     -11.741  16.344  68.992  0.00  0.00    -0.121 NA
BRANCH   2   4
ATOM      4  C   GLN A   1     -11.570  14.067  69.469  0.00  0.00    +0.382 C 
ATOM      5  OXT GLN A   1     -12.139  13.230  70.429  0.00  0.00    -0.244 OA
ATOM      6  O   GLN A   1     -12.101  14.132  68.362  0.00  0.00    -0.244 OA
ENDBRANCH   2   4
ENDBRANCH   1   2
BRANCH   1   7
ATOM      7  CG  GLN A   1     -11.978  16.157  72.326  0.00  0.00    +0.091 C 
BRANCH   7   9
ATOM      8  NE2 GLN A   1     -12.540  16.016  74.688  0.00  0.00    -0.088 NA
ATOM      9  CD  GLN A   1     -12.514  15.395  73.479  0.00  0.00    +0.261 C 
ATOM     10  OE1 GLN A   1     -13.299  14.415  73.315  0.00  0.00    -0.272 OA
ENDBRANCH   7   9
ENDBRANCH   1   7
TORSDOF 4
ENDMDL
