MODEL 1
REMARK VINA RESULT:      -5.2      0.000      0.000
REMARK  Name = 
REMARK  2 active torsions:
REMARK  status: ('A' for Active; 'I' for Inactive)
REMARK    1  A    between atoms: N_2  and  C_3
REMARK    2  A    between atoms: C_3  and  C_4
REMARK                            x       y       z     vdW  Elec       q    Type
REMARK                         _______ _______ _______ _____ _____    ______ ____
ROOT
ATOM      1  C   UNL     1     -11.120  14.677  66.477  0.00  0.00    +0.130 C 
ATOM      2  C   UNL     1     -10.672  16.016  65.976  0.00  0.00    +0.168 C 
ATOM      3  O   UNL     1     -10.550  16.069  64.752  0.00  0.00    -0.294 OA
ATOM      4  C   UNL     1      -9.519  16.598  66.738  0.00  0.00    +0.066 C 
ATOM      5  C   UNL     1      -8.394  15.605  66.655  0.00  0.00    +0.008 C 
ATOM      6  C   UNL     1      -8.796  14.200  66.993  0.00  0.00    +0.003 C 
ATOM      7  C   UNL     1      -9.992  13.721  66.182  0.00  0.00    +0.027 C 
ENDROOT
BRANCH   1   8
ATOM      8  C   UNL     1     -11.325  14.661  67.945  0.00  0.00    +0.009 A 
ATOM      9  C   UNL     1     -11.651  13.420  68.483  0.00  0.00    +0.055 A 
ATOM     10 CL   UNL     1     -11.691  11.975  67.475  0.00  0.00    -0.083 Cl
ATOM     11  C   UNL     1     -11.889  13.256  69.819  0.00  0.00    +0.011 A 
ATOM     12  C   UNL     1     -12.087  14.371  70.589  0.00  0.00    +0.001 A 
ATOM     13  C   UNL     1     -11.953  15.613  70.016  0.00  0.00    -0.000 A 
ATOM     14  C   UNL     1     -11.774  15.758  68.658  0.00  0.00    -0.002 A 
ENDBRANCH   1   8
BRANCH   1  16
ATOM     15  C   UNL     1     -12.070  13.574  64.701  0.00  0.00    +0.108 C 
ATOM     16  N   UNL     1     -12.362  14.334  65.849  0.00  0.00    -0.208 NA
ENDBRANCH   1  16
TORSDOF 2
ENDMDL
MODEL 2
REMARK VINA RESULT:      -4.9      2.475      3.408
REMARK  Name = 
REMARK  2 active torsions:
REMARK  status: ('A' for Active; 'I' for Inactive)
REMARK    1  A    between atoms: N_2  and  C_3
REMARK    2  A    between atoms: C_3  and  C_4
REMARK                            x       y       z     vdW  Elec       q    Type
REMARK                         _______ _______ _______ _____ _____    ______ ____
ROOT
ATOM      1  C   UNL     1     -11.713  12.632  65.552  0.00  0.00    +0.130 C 
ATOM      2  C   UNL     1     -12.527  13.779  66.069  0.00  0.00    +0.168 C 
ATOM      3  O   UNL     1     -13.030  14.467  65.182  0.00  0.00    -0.294 OA
ATOM      4  C   UNL     1     -11.853  14.566  67.154  0.00  0.00    +0.066 C 
ATOM      5  C   UNL     1     -10.550  15.061  66.591  0.00  0.00    +0.008 C 
ATOM      6  C   UNL     1      -9.738  13.999  65.912  0.00  0.00    +0.003 C 
ATOM      7  C   UNL     1     -10.527  13.245  64.851  0.00  0.00    +0.027 C 
ENDROOT
BRANCH   1   8
ATOM      8  C   UNL     1     -11.177  11.782  66.641  0.00  0.00    +0.009 A 
ATOM      9  C   UNL     1     -10.406  10.702  66.222  0.00  0.00    +0.055 A 
ATOM     10 CL   UNL     1     -10.019  10.468  64.518  0.00  0.00    -0.083 Cl
ATOM     11  C   UNL     1      -9.862   9.819  67.113  0.00  0.00    +0.011 A 
ATOM     12  C   UNL     1     -10.314   9.833  68.405  0.00  0.00    +0.001 A 
ATOM     13  C   UNL     1     -11.229  10.785  68.785  0.00  0.00    -0.000 A 
ATOM     14  C   UNL     1     -11.811  11.626  67.861  0.00  0.00    -0.002 A 
ENDBRANCH   1   8
BRANCH   1  16
ATOM     15  C   UNL     1     -12.332  12.222  63.380  0.00  0.00    +0.108 C 
ATOM     16  N   UNL     1     -12.537  11.816  64.711  0.00  0.00    -0.208 NA
ENDBRANCH   1  16
TORSDOF 2
ENDMDL
MODEL 3
REMARK VINA RESULT:      -4.8      2.148      4.136
REMARK  Name = 
REMARK  2 active torsions:
REMARK  status: ('A' for Active; 'I' for Inactive)
REMARK    1  A    between atoms: N_2  and  C_3
REMARK    2  A    between atoms: C_3  and  C_4
REMARK                            x       y       z     vdW  Elec       q    Type
REMARK                         _______ _______ _______ _____ _____    ______ ____
ROOT
ATOM      1  C   UNL     1     -10.788  13.350  66.400  0.00  0.00    +0.130 C 
ATOM      2  C   UNL     1     -10.885  12.132  67.267  0.00  0.00    +0.168 C 
ATOM      3  O   UNL     1     -11.815  11.385  66.966  0.00  0.00    -0.294 OA
ATOM      4  C   UNL     1     -10.772  12.418  68.735  0.00  0.00    +0.066 C 
ATOM      5  C   UNL     1     -11.864  13.391  69.078  0.00  0.00    +0.008 C 
ATOM      6  C   UNL     1     -11.938  14.572  68.156  0.00  0.00    +0.003 C 
ATOM      7  C   UNL     1     -12.021  14.168  66.691  0.00  0.00    +0.027 C 
ENDROOT
BRANCH   1   8
ATOM      8  C   UNL     1      -9.620  14.196  66.741  0.00  0.00    +0.009 A 
ATOM      9  C   UNL     1      -9.542  15.401  66.048  0.00  0.00    +0.055 A 
ATOM     10 CL   UNL     1     -10.821  15.900  64.944  0.00  0.00    -0.083 Cl
ATOM     11  C   UNL     1      -8.508  16.275  66.242  0.00  0.00    +0.011 A 
ATOM     12  C   UNL     1      -7.397  15.835  66.911  0.00  0.00    +0.001 A 
ATOM     13  C   UNL     1      -7.392  14.566  67.439  0.00  0.00    -0.000 A 
ATOM     14  C   UNL     1      -8.415  13.680  67.181  0.00  0.00    -0.002 A 
ENDBRANCH   1   8
BRANCH   1  16
ATOM     15  C   UNL     1     -11.948  12.930  64.464  0.00  0.00    +0.108 C 
ATOM     16  N   UNL     1     -10.662  12.942  65.033  0.00  0.00    -0.208 NA
ENDBRANCH   1  16
TORSDOF 2
ENDMDL
MODEL 4
REMARK VINA RESULT:      -4.8      2.104      3.357
REMARK  Name = 
REMARK  2 active torsions:
REMARK  status: ('A' for Active; 'I' for Inactive)
REMARK    1  A    between atoms: N_2  and  C_3
REMARK    2  A    between atoms: C_3  and  C_4
REMARK                            x       y       z     vdW  Elec       q    Type
REMARK                         _______ _______ _______ _____ _____    ______ ____
ROOT
ATOM      1  C   UNL     1     -10.343  14.019  67.449  0.00  0.00    +0.130 C 
ATOM      2  C   UNL     1     -10.179  12.620  66.939  0.00  0.00    +0.168 C 
ATOM      3  O   UNL     1      -9.352  12.519  66.033  0.00  0.00    -0.294 OA
ATOM      4  C   UNL     1     -11.474  11.911  66.674  0.00  0.00    +0.066 C 
ATOM      5  C   UNL     1     -12.235  12.745  65.681  0.00  0.00    +0.008 C 
ATOM      6  C   UNL     1     -12.313  14.199  66.040  0.00  0.00    +0.003 C 
ATOM      7  C   UNL     1     -10.946  14.809  66.315  0.00  0.00    +0.027 C 
ENDROOT
BRANCH   1   8
ATOM      8  C   UNL     1     -11.293  14.100  68.584  0.00  0.00    +0.009 A 
ATOM      9  C   UNL     1     -11.550  15.386  69.048  0.00  0.00    +0.055 A 
ATOM     10 CL   UNL     1     -10.866  16.797  68.243  0.00  0.00    -0.083 Cl
ATOM     11  C   UNL     1     -12.390  15.615  70.103  0.00  0.00    +0.011 A 
ATOM     12  C   UNL     1     -12.759  14.554  70.886  0.00  0.00    +0.001 A 
ATOM     13  C   UNL     1     -12.348  13.290  70.539  0.00  0.00    -0.000 A 
ATOM     14  C   UNL     1     -11.453  13.086  69.511  0.00  0.00    -0.002 A 
ENDBRANCH   1   8
BRANCH   1  16
ATOM     15  C   UNL     1      -8.481  15.211  66.831  0.00  0.00    +0.108 C 
ATOM     16  N   UNL     1      -9.071  14.506  67.895  0.00  0.00    -0.208 NA
ENDBRANCH   1  16
TORSDOF 2
ENDMDL
MODEL 5
REMARK VINA RESULT:      -4.6      2.137      3.695
REMARK  Name = 
REMARK  2 active torsions:
REMARK  status: ('A' for Active; 'I' for Inactive)
REMARK    1  A    between atoms: N_2  and  C_3
REMARK    2  A    between atoms: C_3  and  C_4
REMARK                            x       y       z     vdW  Elec       q    Type
REMARK                         _______ _______ _______ _____ _____    ______ ____
ROOT
ATOM      1  C   UNL     1     -10.556  13.886  66.966  0.00  0.00    +0.130 C 
ATOM      2  C   UNL     1      -9.955  14.235  65.638  0.00  0.00    +0.168 C 
ATOM      3  O   UNL     1      -9.749  15.440  65.492  0.00  0.00    -0.294 OA
ATOM      4  C   UNL     1     -10.630  13.578  64.471  0.00  0.00    +0.066 C 
ATOM      5  C   UNL     1     -12.076  13.985  64.515  0.00  0.00    +0.008 C 
ATOM      6  C   UNL     1     -12.717  13.813  65.860  0.00  0.00    +0.003 C 
ATOM      7  C   UNL     1     -11.935  14.496  66.974  0.00  0.00    +0.027 C 
ENDROOT
BRANCH   1   8
ATOM      8  C   UNL     1     -10.729  12.425  67.142  0.00  0.00    +0.009 A 
ATOM      9  C   UNL     1     -11.355  12.043  68.324  0.00  0.00    +0.055 A 
ATOM     10 CL   UNL     1     -11.986  13.245  69.448  0.00  0.00    -0.083 Cl
ATOM     11  C   UNL     1     -11.566  10.727  68.633  0.00  0.00    +0.011 A 
ATOM     12  C   UNL     1     -10.904   9.772  67.909  0.00  0.00    +0.001 A 
ATOM     13  C   UNL     1     -10.123  10.158  66.846  0.00  0.00    -0.000 A 
ATOM     14  C   UNL     1      -9.874  11.489  66.588  0.00  0.00    -0.002 A 
ENDBRANCH   1   8
BRANCH   1  16
ATOM     15  C   UNL     1     -10.138  15.645  68.381  0.00  0.00    +0.108 C 
ATOM     16  N   UNL     1      -9.695  14.363  68.008  0.00  0.00    -0.208 NA
ENDBRANCH   1  16
TORSDOF 2
ENDMDL
MODEL 6
REMARK VINA RESULT:      -4.6      4.831      6.755
REMARK  Name = 
REMARK  2 active torsions:
REMARK  status: ('A' for Active; 'I' for Inactive)
REMARK    1  A    between atoms: N_2  and  C_3
REMARK    2  A    between atoms: C_3  and  C_4
REMARK                            x       y       z     vdW  Elec       q    Type
REMARK                         _______ _______ _______ _____ _____    ______ ____
ROOT
ATOM      1  C   UNL     1      -8.065  18.716  66.670  0.00  0.00    +0.130 C 
ATOM      2  C   UNL     1      -8.952  17.687  67.302  0.00  0.00    +0.168 C 
ATOM      3  O   UNL     1      -9.575  17.006  66.488  0.00  0.00    -0.294 OA
ATOM      4  C   UNL     1      -9.783  18.211  68.435  0.00  0.00    +0.066 C 
ATOM      5  C   UNL     1     -10.605  19.345  67.887  0.00  0.00    +0.008 C 
ATOM      6  C   UNL     1      -9.812  20.347  67.101  0.00  0.00    +0.003 C 
ATOM      7  C   UNL     1      -8.984  19.703  65.997  0.00  0.00    +0.027 C 
ENDROOT
BRANCH   1   8
ATOM      8  C   UNL     1      -7.275  19.474  67.669  0.00  0.00    +0.009 A 
ATOM      9  C   UNL     1      -6.375  20.393  67.137  0.00  0.00    +0.055 A 
ATOM     10 CL   UNL     1      -6.296  20.688  65.402  0.00  0.00    -0.083 Cl
ATOM     11  C   UNL     1      -5.565  21.149  67.937  0.00  0.00    +0.011 A 
ATOM     12  C   UNL     1      -5.435  20.799  69.255  0.00  0.00    +0.001 A 
ATOM     13  C   UNL     1      -6.186  19.759  69.748  0.00  0.00    -0.000 A 
ATOM     14  C   UNL     1      -6.950  18.970  68.916  0.00  0.00    -0.002 A 
ENDBRANCH   1   8
BRANCH   1  16
ATOM     15  C   UNL     1      -6.585  16.972  66.466  0.00  0.00    +0.108 C 
ATOM     16  N   UNL     1      -7.151  18.062  65.780  0.00  0.00    -0.208 NA
ENDBRANCH   1  16
TORSDOF 2
ENDMDL
MODEL 7
REMARK VINA RESULT:      -4.6      3.167      4.960
REMARK  Name = 
REMARK  2 active torsions:
REMARK  status: ('A' for Active; 'I' for Inactive)
REMARK    1  A    between atoms: N_2  and  C_3
REMARK    2  A    between atoms: C_3  and  C_4
REMARK                            x       y       z     vdW  Elec       q    Type
REMARK                         _______ _______ _______ _____ _____    ______ ____
ROOT
ATOM      1  C   UNL     1     -10.647  11.576  67.280  0.00  0.00    +0.130 C 
ATOM      2  C   UNL     1      -9.714  10.405  67.349  0.00  0.00    +0.168 C 
ATOM      3  O   UNL     1      -9.510  10.004  68.495  0.00  0.00    -0.294 OA
ATOM      4  C   UNL     1      -8.475  10.563  66.519  0.00  0.00    +0.066 C 
ATOM      5  C   UNL     1      -7.785  11.811  66.995  0.00  0.00    +0.008 C 
ATOM      6  C   UNL     1      -8.690  13.002  67.105  0.00  0.00    +0.003 C 
ATOM      7  C   UNL     1      -9.928  12.722  67.945  0.00  0.00    +0.027 C 
ENDROOT
BRANCH   1   8
ATOM      8  C   UNL     1     -10.930  11.993  65.887  0.00  0.00    +0.009 A 
ATOM      9  C   UNL     1     -11.705  13.142  65.760  0.00  0.00    +0.055 A 
ATOM     10 CL   UNL     1     -12.196  14.068  67.177  0.00  0.00    -0.083 Cl
ATOM     11  C   UNL     1     -12.064  13.635  64.536  0.00  0.00    +0.011 A 
ATOM     12  C   UNL     1     -11.897  12.837  63.436  0.00  0.00    +0.001 A 
ATOM     13  C   UNL     1     -11.299  11.610  63.583  0.00  0.00    -0.000 A 
ATOM     14  C   UNL     1     -11.001  11.104  64.830  0.00  0.00    -0.002 A 
ENDBRANCH   1   8
BRANCH   1  16
ATOM     15  C   UNL     1     -11.822  11.603  69.253  0.00  0.00    +0.108 C 
ATOM     16  N   UNL     1     -11.889  11.221  67.901  0.00  0.00    -0.208 NA
ENDBRANCH   1  16
TORSDOF 2
ENDMDL
MODEL 8
REMARK VINA RESULT:      -4.6      2.194      3.155
REMARK  Name = 
REMARK  2 active torsions:
REMARK  status: ('A' for Active; 'I' for Inactive)
REMARK    1  A    between atoms: N_2  and  C_3
REMARK    2  A    between atoms: C_3  and  C_4
REMARK                            x       y       z     vdW  Elec       q    Type
REMARK                         _______ _______ _______ _____ _____    ______ ____
ROOT
ATOM      1  C   UNL     1     -10.576  13.410  66.722  0.00  0.00    +0.130 C 
ATOM      2  C   UNL     1     -11.851  12.844  66.176  0.00  0.00    +0.168 C 
ATOM      3  O   UNL     1     -11.682  11.890  65.417  0.00  0.00    -0.294 OA
ATOM      4  C   UNL     1     -12.809  13.879  65.665  0.00  0.00    +0.066 C 
ATOM      5  C   UNL     1     -12.085  14.658  64.603  0.00  0.00    +0.008 C 
ATOM      6  C   UNL     1     -10.724  15.133  65.017  0.00  0.00    +0.003 C 
ATOM      7  C   UNL     1      -9.846  14.007  65.545  0.00  0.00    +0.027 C 
ENDROOT
BRANCH   1   8
ATOM      8  C   UNL     1     -10.812  14.511  67.686  0.00  0.00    +0.009 A 
ATOM      9  C   UNL     1      -9.670  15.192  68.096  0.00  0.00    +0.055 A 
ATOM     10 CL   UNL     1      -8.092  14.818  67.406  0.00  0.00    -0.083 Cl
ATOM     11  C   UNL     1      -9.730  16.218  68.998  0.00  0.00    +0.011 A 
ATOM     12  C   UNL     1     -10.884  16.389  69.716  0.00  0.00    +0.001 A 
ATOM     13  C   UNL     1     -11.966  15.587  69.447  0.00  0.00    -0.000 A 
ATOM     14  C   UNL     1     -11.868  14.521  68.579  0.00  0.00    -0.002 A 
ENDBRANCH   1   8
BRANCH   1  16
ATOM     15  C   UNL     1      -8.916  11.840  66.494  0.00  0.00    +0.108 C 
ATOM     16  N   UNL     1      -9.854  12.372  67.397  0.00  0.00    -0.208 NA
ENDBRANCH   1  16
TORSDOF 2
ENDMDL
MODEL 9
REMARK VINA RESULT:      -4.6      3.132      4.972
REMARK  Name = 
REMARK  2 active torsions:
REMARK  status: ('A' for Active; 'I' for Inactive)
REMARK    1  A    between atoms: N_2  and  C_3
REMARK    2  A    between atoms: C_3  and  C_4
REMARK                            x       y       z     vdW  Elec       q    Type
REMARK                         _______ _______ _______ _____ _____    ______ ____
ROOT
ATOM      1  C   UNL     1      -9.409  17.474  66.690  0.00  0.00    +0.130 C 
ATOM      2  C   UNL     1      -9.887  16.458  65.699  0.00  0.00    +0.168 C 
ATOM      3  O   UNL     1     -10.856  16.831  65.037  0.00  0.00    -0.294 OA
ATOM      4  C   UNL     1     -10.019  15.073  66.259  0.00  0.00    +0.066 C 
ATOM      5  C   UNL     1     -10.969  15.159  67.420  0.00  0.00    +0.008 C 
ATOM      6  C   UNL     1     -10.651  16.260  68.387  0.00  0.00    +0.003 C 
ATOM      7  C   UNL     1     -10.512  17.615  67.708  0.00  0.00    +0.027 C 
ENDROOT
BRANCH   1   8
ATOM      8  C   UNL     1      -8.201  17.026  67.423  0.00  0.00    +0.009 A 
ATOM      9  C   UNL     1      -7.762  17.890  68.421  0.00  0.00    +0.055 A 
ATOM     10 CL   UNL     1      -8.671  19.342  68.832  0.00  0.00    -0.083 Cl
ATOM     11  C   UNL     1      -6.648  17.618  69.167  0.00  0.00    +0.011 A 
ATOM     12  C   UNL     1      -5.799  16.632  68.739  0.00  0.00    +0.001 A 
ATOM     13  C   UNL     1      -6.136  15.893  67.631  0.00  0.00    -0.000 A 
ATOM     14  C   UNL     1      -7.229  16.220  66.858  0.00  0.00    -0.002 A 
ENDBRANCH   1   8
BRANCH   1  16
ATOM     15  C   UNL     1     -10.201  19.543  66.087  0.00  0.00    +0.108 C 
ATOM     16  N   UNL     1      -9.088  18.687  65.999  0.00  0.00    -0.208 NA
ENDBRANCH   1  16
TORSDOF 2
ENDMDL
