MODEL 1
REMARK VINA RESULT:      -5.2      0.000      0.000
REMARK  Name = 
REMARK  0 active torsions:
REMARK  status: ('A' for Active; 'I' for Inactive)
REMARK                            x       y       z     vdW  Elec       q    Type
REMARK                         _______ _______ _______ _____ _____    ______ ____
ROOT
ATOM      1  O   UNL     1     -11.404  16.960  64.207  0.00  0.00    -0.221 OA
ATOM      2  C   UNL     1     -11.557  15.743  64.535  0.00  0.00    +0.441 A 
ATOM      3  O   UNL     1     -12.442  14.927  64.028  0.00  0.00    -0.406 OA
ATOM      4  C   UNL     1     -12.113  13.673  64.247  0.00  0.00    +0.168 A 
ATOM      5  C   UNL     1     -10.796  13.726  64.690  0.00  0.00    +0.123 A 
ATOM      6  C   UNL     1      -9.947  12.648  64.478  0.00  0.00    +0.034 A 
ATOM      7  C   UNL     1     -10.281  11.639  63.581  0.00  0.00    +0.059 A 
ATOM      8  C   UNL     1     -11.644  11.480  63.364  0.00  0.00    +0.015 A 
ATOM      9 CL   UNL     1      -9.116  11.011  62.417  0.00  0.00    -0.082 Cl
ATOM     10  C   UNL     1     -12.543  12.449  63.746  0.00  0.00    +0.040 A 
ATOM     11  N   UNL     1     -10.700  14.954  65.229  0.00  0.00    -0.171 NA
ENDROOT
TORSDOF 0
ENDMDL
MODEL 2
REMARK VINA RESULT:      -5.1      2.948      3.989
REMARK  Name = 
REMARK  0 active torsions:
REMARK  status: ('A' for Active; 'I' for Inactive)
REMARK                            x       y       z     vdW  Elec       q    Type
REMARK                         _______ _______ _______ _____ _____    ______ ____
ROOT
ATOM      1  O   UNL     1     -12.518  11.619  63.158  0.00  0.00    -0.221 OA
ATOM      2  C   UNL     1     -12.631  12.605  63.950  0.00  0.00    +0.441 A 
ATOM      3  O   UNL     1     -12.596  12.537  65.253  0.00  0.00    -0.406 OA
ATOM      4  C   UNL     1     -12.333  13.711  65.784  0.00  0.00    +0.168 A 
ATOM      5  C   UNL     1     -11.915  14.495  64.714  0.00  0.00    +0.123 A 
ATOM      6  C   UNL     1     -11.041  15.554  64.927  0.00  0.00    +0.034 A 
ATOM      7  C   UNL     1     -10.340  15.673  66.123  0.00  0.00    +0.059 A 
ATOM      8  C   UNL     1     -10.941  15.060  67.215  0.00  0.00    +0.015 A 
ATOM      9 CL   UNL     1      -8.619  16.053  66.152  0.00  0.00    -0.082 Cl
ATOM     10  C   UNL     1     -11.957  14.148  67.049  0.00  0.00    +0.040 A 
ATOM     11  N   UNL     1     -12.519  13.925  63.657  0.00  0.00    -0.171 NA
ENDROOT
TORSDOF 0
ENDMDL
MODEL 3
REMARK VINA RESULT:      -5.0      7.772      8.296
REMARK  Name = 
REMARK  0 active torsions:
REMARK  status: ('A' for Active; 'I' for Inactive)
REMARK                            x       y       z     vdW  Elec       q    Type
REMARK                         _______ _______ _______ _____ _____    ______ ____
ROOT
ATOM      1  O   UNL     1     -12.481  16.274  74.980  0.00  0.00    -0.221 OA
ATOM      2  C   UNL     1     -12.668  16.223  73.725  0.00  0.00    +0.441 A 
ATOM      3  O   UNL     1     -11.791  16.551  72.815  0.00  0.00    -0.406 OA
ATOM      4  C   UNL     1     -12.098  16.028  71.648  0.00  0.00    +0.168 A 
ATOM      5  C   UNL     1     -13.091  15.096  71.930  0.00  0.00    +0.123 A 
ATOM      6  C   UNL     1     -13.256  13.986  71.112  0.00  0.00    +0.034 A 
ATOM      7  C   UNL     1     -12.275  13.620  70.196  0.00  0.00    +0.059 A 
ATOM      8  C   UNL     1     -11.458  14.661  69.770  0.00  0.00    +0.015 A 
ATOM      9 CL   UNL     1     -11.748  11.948  70.022  0.00  0.00    -0.082 Cl
ATOM     10  C   UNL     1     -11.420  15.858  70.446  0.00  0.00    +0.040 A 
ATOM     11  N   UNL     1     -13.652  15.572  73.055  0.00  0.00    -0.171 NA
ENDROOT
TORSDOF 0
ENDMDL
MODEL 4
REMARK VINA RESULT:      -4.8      7.710      7.917
REMARK  Name = 
REMARK  0 active torsions:
REMARK  status: ('A' for Active; 'I' for Inactive)
REMARK                            x       y       z     vdW  Elec       q    Type
REMARK                         _______ _______ _______ _____ _____    ______ ____
ROOT
ATOM      1  O   UNL     1     -12.575  15.333  73.861  0.00  0.00    -0.221 OA
ATOM      2  C   UNL     1     -12.875  14.656  72.830  0.00  0.00    +0.441 A 
ATOM      3  O   UNL     1     -12.197  14.635  71.714  0.00  0.00    -0.406 OA
ATOM      4  C   UNL     1     -12.495  13.573  70.997  0.00  0.00    +0.168 A 
ATOM      5  C   UNL     1     -13.210  12.753  71.862  0.00  0.00    +0.123 A 
ATOM      6  C   UNL     1     -13.198  11.376  71.683  0.00  0.00    +0.034 A 
ATOM      7  C   UNL     1     -12.259  10.770  70.854  0.00  0.00    +0.059 A 
ATOM      8  C   UNL     1     -11.755  11.587  69.850  0.00  0.00    +0.015 A 
ATOM      9 CL   UNL     1     -11.380   9.325  71.350  0.00  0.00    -0.082 Cl
ATOM     10  C   UNL     1     -11.925  12.952  69.891  0.00  0.00    +0.040 A 
ATOM     11  N   UNL     1     -13.746  13.619  72.739  0.00  0.00    -0.171 NA
ENDROOT
TORSDOF 0
ENDMDL
MODEL 5
REMARK VINA RESULT:      -4.8      7.616      8.323
REMARK  Name = 
REMARK  0 active torsions:
REMARK  status: ('A' for Active; 'I' for Inactive)
REMARK                            x       y       z     vdW  Elec       q    Type
REMARK                         _______ _______ _______ _____ _____    ______ ____
ROOT
ATOM      1  O   UNL     1     -10.491  13.502  68.909  0.00  0.00    -0.221 OA
ATOM      2  C   UNL     1     -11.293  14.355  69.400  0.00  0.00    +0.441 A 
ATOM      3  O   UNL     1     -12.544  14.132  69.703  0.00  0.00    -0.406 OA
ATOM      4  C   UNL     1     -12.998  15.036  70.543  0.00  0.00    +0.168 A 
ATOM      5  C   UNL     1     -11.863  15.704  70.989  0.00  0.00    +0.123 A 
ATOM      6  C   UNL     1     -11.853  16.296  72.245  0.00  0.00    +0.034 A 
ATOM      7  C   UNL     1     -12.829  15.990  73.188  0.00  0.00    +0.059 A 
ATOM      8  C   UNL     1     -14.035  15.549  72.657  0.00  0.00    +0.015 A 
ATOM      9 CL   UNL     1     -12.419  15.647  74.868  0.00  0.00    -0.082 Cl
ATOM     10  C   UNL     1     -14.128  15.142  71.346  0.00  0.00    +0.040 A 
ATOM     11  N   UNL     1     -10.992  15.545  69.977  0.00  0.00    -0.171 NA
ENDROOT
TORSDOF 0
ENDMDL
MODEL 6
REMARK VINA RESULT:      -4.8      5.917      6.314
REMARK  Name = 
REMARK  0 active torsions:
REMARK  status: ('A' for Active; 'I' for Inactive)
REMARK                            x       y       z     vdW  Elec       q    Type
REMARK                         _______ _______ _______ _____ _____    ______ ____
ROOT
ATOM      1  O   UNL     1     -14.587  15.826  72.090  0.00  0.00    -0.221 OA
ATOM      2  C   UNL     1     -13.537  15.346  71.561  0.00  0.00    +0.441 A 
ATOM      3  O   UNL     1     -13.278  14.075  71.411  0.00  0.00    -0.406 OA
ATOM      4  C   UNL     1     -12.351  13.883  70.498  0.00  0.00    +0.168 A 
ATOM      5  C   UNL     1     -12.227  15.111  69.858  0.00  0.00    +0.123 A 
ATOM      6  C   UNL     1     -11.808  15.166  68.536  0.00  0.00    +0.034 A 
ATOM      7  C   UNL     1     -11.793  14.024  67.741  0.00  0.00    +0.059 A 
ATOM      8  C   UNL     1     -11.673  12.829  68.440  0.00  0.00    +0.015 A 
ATOM      9 CL   UNL     1     -12.424  14.033  66.096  0.00  0.00    -0.082 Cl
ATOM     10  C   UNL     1     -11.887  12.775  69.798  0.00  0.00    +0.040 A 
ATOM     11  N   UNL     1     -12.621  15.990  70.796  0.00  0.00    -0.171 NA
ENDROOT
TORSDOF 0
ENDMDL
MODEL 7
REMARK VINA RESULT:      -4.8      4.465      5.325
REMARK  Name = 
REMARK  0 active torsions:
REMARK  status: ('A' for Active; 'I' for Inactive)
REMARK                            x       y       z     vdW  Elec       q    Type
REMARK                         _______ _______ _______ _____ _____    ______ ____
ROOT
ATOM      1  O   UNL     1     -13.233  12.519  64.665  0.00  0.00    -0.221 OA
ATOM      2  C   UNL     1     -12.395  12.922  65.530  0.00  0.00    +0.441 A 
ATOM      3  O   UNL     1     -12.097  14.170  65.772  0.00  0.00    -0.406 OA
ATOM      4  C   UNL     1     -11.531  14.304  66.951  0.00  0.00    +0.168 A 
ATOM      5  C   UNL     1     -11.742  13.084  67.584  0.00  0.00    +0.123 A 
ATOM      6  C   UNL     1     -11.814  13.022  68.970  0.00  0.00    +0.034 A 
ATOM      7  C   UNL     1     -11.978  14.176  69.730  0.00  0.00    +0.059 A 
ATOM      8  C   UNL     1     -11.522  15.341  69.126  0.00  0.00    +0.015 A 
ATOM      9 CL   UNL     1     -13.139  14.255  71.053  0.00  0.00    -0.082 Cl
ATOM     10  C   UNL     1     -11.246  15.384  67.779  0.00  0.00    +0.040 A 
ATOM     11  N   UNL     1     -11.860  12.220  66.560  0.00  0.00    -0.171 NA
ENDROOT
TORSDOF 0
ENDMDL
MODEL 8
REMARK VINA RESULT:      -4.7      3.769      4.458
REMARK  Name = 
REMARK  0 active torsions:
REMARK  status: ('A' for Active; 'I' for Inactive)
REMARK                            x       y       z     vdW  Elec       q    Type
REMARK                         _______ _______ _______ _____ _____    ______ ____
ROOT
ATOM      1  O   UNL     1     -13.241  12.094  63.546  0.00  0.00    -0.221 OA
ATOM      2  C   UNL     1     -12.484  12.555  64.456  0.00  0.00    +0.441 A 
ATOM      3  O   UNL     1     -12.754  13.579  65.219  0.00  0.00    -0.406 OA
ATOM      4  C   UNL     1     -12.009  13.575  66.302  0.00  0.00    +0.168 A 
ATOM      5  C   UNL     1     -11.430  12.311  66.327  0.00  0.00    +0.123 A 
ATOM      6  C   UNL     1     -11.065  11.736  67.537  0.00  0.00    +0.034 A 
ATOM      7  C   UNL     1     -11.528  12.253  68.743  0.00  0.00    +0.059 A 
ATOM      8  C   UNL     1     -11.869  13.600  68.708  0.00  0.00    +0.015 A 
ATOM      9 CL   UNL     1     -12.157  11.210  70.017  0.00  0.00    -0.082 Cl
ATOM     10  C   UNL     1     -12.043  14.258  67.513  0.00  0.00    +0.040 A 
ATOM     11  N   UNL     1     -11.413  11.953  65.031  0.00  0.00    -0.171 NA
ENDROOT
TORSDOF 0
ENDMDL
MODEL 9
REMARK VINA RESULT:      -4.7      3.755      4.558
REMARK  Name = 
REMARK  0 active torsions:
REMARK  status: ('A' for Active; 'I' for Inactive)
REMARK                            x       y       z     vdW  Elec       q    Type
REMARK                         _______ _______ _______ _____ _____    ______ ____
ROOT
ATOM      1  O   UNL     1     -10.569  19.971  66.127  0.00  0.00    -0.221 OA
ATOM      2  C   UNL     1     -10.297  18.826  66.604  0.00  0.00    +0.441 A 
ATOM      3  O   UNL     1     -10.831  18.306  67.676  0.00  0.00    -0.406 OA
ATOM      4  C   UNL     1     -10.677  17.000  67.699  0.00  0.00    +0.168 A 
ATOM      5  C   UNL     1     -10.252  16.673  66.417  0.00  0.00    +0.123 A 
ATOM      6  C   UNL     1     -10.527  15.417  65.891  0.00  0.00    +0.034 A 
ATOM      7  C   UNL     1     -11.467  14.583  66.487  0.00  0.00    +0.059 A 
ATOM      8  C   UNL     1     -11.672  14.810  67.842  0.00  0.00    +0.015 A 
ATOM      9 CL   UNL     1     -12.677  13.723  65.536  0.00  0.00    -0.082 Cl
ATOM     10  C   UNL     1     -11.231  15.965  68.445  0.00  0.00    +0.040 A 
ATOM     11  N   UNL     1      -9.654  17.800  65.991  0.00  0.00    -0.171 NA
ENDROOT
TORSDOF 0
ENDMDL
