MODEL 1
REMARK VINA RESULT:      -5.3      0.000      0.000
REMARK  Name = 
REMARK  2 active torsions:
REMARK  status: ('A' for Active; 'I' for Inactive)
REMARK    1  A    between atoms: C_2  and  C_3
REMARK    2  A    between atoms: C_6  and  S_7
REMARK                            x       y       z     vdW  Elec       q    Type
REMARK                         _______ _______ _______ _____ _____    ______ ____
ROOT
ATOM      1  C   UNL     1     -11.814  14.122  68.354  0.00  0.00    -0.003 A 
ATOM      2  C   UNL     1     -11.752  15.403  68.866  0.00  0.00    -0.001 A 
ATOM      3  C   UNL     1     -12.032  15.618  70.208  0.00  0.00    +0.020 A 
ATOM      4  C   UNL     1     -12.312  14.581  71.087  0.00  0.00    +0.125 A 
ATOM      5  C   UNL     1     -12.221  13.307  70.537  0.00  0.00    +0.020 A 
ATOM      6  C   UNL     1     -11.687  13.097  69.279  0.00  0.00    -0.001 A 
ENDROOT
BRANCH   4   7
ATOM      7  S   UNL     1     -13.503  14.775  72.371  0.00  0.00    +0.093 S 
ATOM      8  O   UNL     1     -14.138  13.441  72.620  0.00  0.00    -0.150 OA
ATOM      9  O   UNL     1     -14.550  15.769  71.926  0.00  0.00    -0.150 OA
ATOM     10  N   UNL     1     -12.760  15.266  73.847  0.00  0.00    +0.039 NA
ENDBRANCH   4   7
BRANCH   1  12
ATOM     11  N   UNL     1     -12.041  12.415  66.698  0.00  0.00    -0.126 NA
ATOM     12  C   UNL     1     -12.047  13.844  66.903  0.00  0.00    +0.136 C 
ENDBRANCH   1  12
TORSDOF 2
ENDMDL
MODEL 2
REMARK VINA RESULT:      -5.0      2.349      3.271
REMARK  Name = 
REMARK  2 active torsions:
REMARK  status: ('A' for Active; 'I' for Inactive)
REMARK    1  A    between atoms: C_2  and  C_3
REMARK    2  A    between atoms: C_6  and  S_7
REMARK                            x       y       z     vdW  Elec       q    Type
REMARK                         _______ _______ _______ _____ _____    ______ ____
ROOT
ATOM      1  C   UNL     1     -12.170  11.401  70.741  0.00  0.00    -0.003 A 
ATOM      2  C   UNL     1     -13.144  11.484  71.716  0.00  0.00    -0.001 A 
ATOM      3  C   UNL     1     -13.578  12.730  72.145  0.00  0.00    +0.020 A 
ATOM      4  C   UNL     1     -13.116  13.914  71.585  0.00  0.00    +0.125 A 
ATOM      5  C   UNL     1     -12.242  13.753  70.516  0.00  0.00    +0.020 A 
ATOM      6  C   UNL     1     -12.028  12.518  69.934  0.00  0.00    -0.001 A 
ENDROOT
BRANCH   4   7
ATOM      7  S   UNL     1     -12.855  15.347  72.577  0.00  0.00    +0.093 S 
ATOM      8  O   UNL     1     -14.168  16.055  72.723  0.00  0.00    -0.150 OA
ATOM      9  O   UNL     1     -11.857  16.248  71.888  0.00  0.00    -0.150 OA
ATOM     10  N   UNL     1     -12.328  14.926  74.163  0.00  0.00    +0.039 NA
ENDBRANCH   4   7
BRANCH   1  12
ATOM     11  N   UNL     1     -12.019   9.030  71.000  0.00  0.00    -0.126 NA
ATOM     12  C   UNL     1     -11.287  10.203  70.585  0.00  0.00    +0.136 C 
ENDBRANCH   1  12
TORSDOF 2
ENDMDL
MODEL 3
REMARK VINA RESULT:      -4.9      4.614      5.985
REMARK  Name = 
REMARK  2 active torsions:
REMARK  status: ('A' for Active; 'I' for Inactive)
REMARK    1  A    between atoms: C_2  and  C_3
REMARK    2  A    between atoms: C_6  and  S_7
REMARK                            x       y       z     vdW  Elec       q    Type
REMARK                         _______ _______ _______ _____ _____    ______ ____
ROOT
ATOM      1  C   UNL     1     -11.780  13.983  68.926  0.00  0.00    -0.003 A 
ATOM      2  C   UNL     1     -11.768  12.672  68.490  0.00  0.00    -0.001 A 
ATOM      3  C   UNL     1     -11.594  12.401  67.141  0.00  0.00    +0.020 A 
ATOM      4  C   UNL     1     -11.363  13.399  66.203  0.00  0.00    +0.125 A 
ATOM      5  C   UNL     1     -11.250  14.681  66.730  0.00  0.00    +0.020 A 
ATOM      6  C   UNL     1     -11.162  14.900  68.091  0.00  0.00    -0.001 A 
ENDROOT
BRANCH   4   7
ATOM      7  S   UNL     1     -12.044  13.297  64.581  0.00  0.00    +0.093 S 
ATOM      8  O   UNL     1     -13.264  12.429  64.645  0.00  0.00    -0.150 OA
ATOM      9  O   UNL     1     -11.021  12.681  63.656  0.00  0.00    -0.150 OA
ATOM     10  N   UNL     1     -12.552  14.843  64.014  0.00  0.00    +0.039 NA
ENDBRANCH   4   7
BRANCH   1  12
ATOM     11  N   UNL     1     -12.467  15.847  70.253  0.00  0.00    -0.126 NA
ATOM     12  C   UNL     1     -12.454  14.404  70.193  0.00  0.00    +0.136 C 
ENDBRANCH   1  12
TORSDOF 2
ENDMDL
MODEL 4
REMARK VINA RESULT:      -4.9      3.009      5.019
REMARK  Name = 
REMARK  2 active torsions:
REMARK  status: ('A' for Active; 'I' for Inactive)
REMARK    1  A    between atoms: C_2  and  C_3
REMARK    2  A    between atoms: C_6  and  S_7
REMARK                            x       y       z     vdW  Elec       q    Type
REMARK                         _______ _______ _______ _____ _____    ______ ____
ROOT
ATOM      1  C   UNL     1     -12.637  15.292  72.994  0.00  0.00    -0.003 A 
ATOM      2  C   UNL     1     -12.068  16.185  72.107  0.00  0.00    -0.001 A 
ATOM      3  C   UNL     1     -11.935  15.833  70.771  0.00  0.00    +0.020 A 
ATOM      4  C   UNL     1     -12.413  14.631  70.266  0.00  0.00    +0.125 A 
ATOM      5  C   UNL     1     -13.097  13.842  71.184  0.00  0.00    +0.020 A 
ATOM      6  C   UNL     1     -13.449  14.321  72.432  0.00  0.00    -0.001 A 
ENDROOT
BRANCH   4   7
ATOM      7  S   UNL     1     -11.535  13.758  69.013  0.00  0.00    +0.093 S 
ATOM      8  O   UNL     1     -10.117  14.243  69.019  0.00  0.00    -0.150 OA
ATOM      9  O   UNL     1     -12.172  14.046  67.674  0.00  0.00    -0.150 OA
ATOM     10  N   UNL     1     -11.493  12.066  69.337  0.00  0.00    +0.039 NA
ENDBRANCH   4   7
BRANCH   1  12
ATOM     11  N   UNL     1     -12.468  16.701  74.916  0.00  0.00    -0.126 NA
ATOM     12  C   UNL     1     -12.365  15.334  74.464  0.00  0.00    +0.136 C 
ENDBRANCH   1  12
TORSDOF 2
ENDMDL
MODEL 5
REMARK VINA RESULT:      -4.8      1.396      1.503
REMARK  Name = 
REMARK  2 active torsions:
REMARK  status: ('A' for Active; 'I' for Inactive)
REMARK    1  A    between atoms: C_2  and  C_3
REMARK    2  A    between atoms: C_6  and  S_7
REMARK                            x       y       z     vdW  Elec       q    Type
REMARK                         _______ _______ _______ _____ _____    ______ ____
ROOT
ATOM      1  C   UNL     1     -11.666  14.312  68.224  0.00  0.00    -0.003 A 
ATOM      2  C   UNL     1     -11.730  15.596  68.729  0.00  0.00    -0.001 A 
ATOM      3  C   UNL     1     -12.121  15.795  70.045  0.00  0.00    +0.020 A 
ATOM      4  C   UNL     1     -12.392  14.742  70.909  0.00  0.00    +0.125 A 
ATOM      5  C   UNL     1     -12.173  13.477  70.377  0.00  0.00    +0.020 A 
ATOM      6  C   UNL     1     -11.537  13.301  69.163  0.00  0.00    -0.001 A 
ENDROOT
BRANCH   4   7
ATOM      7  S   UNL     1     -13.684  14.857  72.103  0.00  0.00    +0.093 S 
ATOM      8  O   UNL     1     -14.831  15.589  71.475  0.00  0.00    -0.150 OA
ATOM      9  O   UNL     1     -13.178  15.622  73.303  0.00  0.00    -0.150 OA
ATOM     10  N   UNL     1     -14.264  13.297  72.552  0.00  0.00    +0.039 NA
ENDBRANCH   4   7
BRANCH   1  12
ATOM     11  N   UNL     1     -11.208  15.119  66.022  0.00  0.00    -0.126 NA
ATOM     12  C   UNL     1     -11.773  14.016  66.761  0.00  0.00    +0.136 C 
ENDBRANCH   1  12
TORSDOF 2
ENDMDL
MODEL 6
REMARK VINA RESULT:      -4.7      4.985      6.327
REMARK  Name = 
REMARK  2 active torsions:
REMARK  status: ('A' for Active; 'I' for Inactive)
REMARK    1  A    between atoms: C_2  and  C_3
REMARK    2  A    between atoms: C_6  and  S_7
REMARK                            x       y       z     vdW  Elec       q    Type
REMARK                         _______ _______ _______ _____ _____    ______ ____
ROOT
ATOM      1  C   UNL     1     -11.602  11.560  68.475  0.00  0.00    -0.003 A 
ATOM      2  C   UNL     1     -10.946  10.843  67.493  0.00  0.00    -0.001 A 
ATOM      3  C   UNL     1     -10.860  11.363  66.209  0.00  0.00    +0.020 A 
ATOM      4  C   UNL     1     -11.355  12.617  65.877  0.00  0.00    +0.125 A 
ATOM      5  C   UNL     1     -11.878  13.340  66.944  0.00  0.00    +0.020 A 
ATOM      6  C   UNL     1     -11.717  12.923  68.251  0.00  0.00    -0.001 A 
ENDROOT
BRANCH   4   7
ATOM      7  S   UNL     1     -12.108  12.911  64.311  0.00  0.00    +0.093 S 
ATOM      8  O   UNL     1     -13.391  12.138  64.262  0.00  0.00    -0.150 OA
ATOM      9  O   UNL     1     -11.177  12.436  63.220  0.00  0.00    -0.150 OA
ATOM     10  N   UNL     1     -12.511  14.575  64.111  0.00  0.00    +0.039 NA
ENDBRANCH   4   7
BRANCH   1  12
ATOM     11  N   UNL     1     -12.351  11.909  70.717  0.00  0.00    -0.126 NA
ATOM     12  C   UNL     1     -12.195  10.911  69.686  0.00  0.00    +0.136 C 
ENDBRANCH   1  12
TORSDOF 2
ENDMDL
MODEL 7
REMARK VINA RESULT:      -4.7      5.076      6.440
REMARK  Name = 
REMARK  2 active torsions:
REMARK  status: ('A' for Active; 'I' for Inactive)
REMARK    1  A    between atoms: C_2  and  C_3
REMARK    2  A    between atoms: C_6  and  S_7
REMARK                            x       y       z     vdW  Elec       q    Type
REMARK                         _______ _______ _______ _____ _____    ______ ____
ROOT
ATOM      1  C   UNL     1     -10.409  16.260  67.312  0.00  0.00    -0.003 A 
ATOM      2  C   UNL     1     -11.319  15.336  67.786  0.00  0.00    -0.001 A 
ATOM      3  C   UNL     1     -11.660  14.245  67.000  0.00  0.00    +0.020 A 
ATOM      4  C   UNL     1     -11.071  14.002  65.766  0.00  0.00    +0.125 A 
ATOM      5  C   UNL     1     -10.065  14.894  65.412  0.00  0.00    +0.020 A 
ATOM      6  C   UNL     1      -9.558  15.810  66.314  0.00  0.00    -0.001 A 
ENDROOT
BRANCH   4   7
ATOM      7  S   UNL     1     -12.006  13.334  64.429  0.00  0.00    +0.093 S 
ATOM      8  O   UNL     1     -12.534  14.477  63.617  0.00  0.00    -0.150 OA
ATOM      9  O   UNL     1     -13.153  12.524  64.987  0.00  0.00    -0.150 OA
ATOM     10  N   UNL     1     -11.017  12.385  63.384  0.00  0.00    +0.039 NA
ENDBRANCH   4   7
BRANCH   1  12
ATOM     11  N   UNL     1     -10.473  18.560  66.669  0.00  0.00    -0.126 NA
ATOM     12  C   UNL     1     -10.365  17.673  67.802  0.00  0.00    +0.136 C 
ENDBRANCH   1  12
TORSDOF 2
ENDMDL
MODEL 8
REMARK VINA RESULT:      -4.7      3.374      5.168
REMARK  Name = 
REMARK  2 active torsions:
REMARK  status: ('A' for Active; 'I' for Inactive)
REMARK    1  A    between atoms: C_2  and  C_3
REMARK    2  A    between atoms: C_6  and  S_7
REMARK                            x       y       z     vdW  Elec       q    Type
REMARK                         _______ _______ _______ _____ _____    ______ ____
ROOT
ATOM      1  C   UNL     1     -12.733  14.679  70.722  0.00  0.00    -0.003 A 
ATOM      2  C   UNL     1     -12.311  13.371  70.582  0.00  0.00    -0.001 A 
ATOM      3  C   UNL     1     -11.712  12.968  69.397  0.00  0.00    +0.020 A 
ATOM      4  C   UNL     1     -11.455  13.848  68.355  0.00  0.00    +0.125 A 
ATOM      5  C   UNL     1     -11.778  15.175  68.616  0.00  0.00    +0.020 A 
ATOM      6  C   UNL     1     -12.124  15.600  69.885  0.00  0.00    -0.001 A 
ENDROOT
BRANCH   4   7
ATOM      7  S   UNL     1     -11.616  13.339  66.675  0.00  0.00    +0.093 S 
ATOM      8  O   UNL     1     -12.691  14.167  66.041  0.00  0.00    -0.150 OA
ATOM      9  O   UNL     1     -12.001  11.878  66.639  0.00  0.00    -0.150 OA
ATOM     10  N   UNL     1     -10.166  13.628  65.790  0.00  0.00    +0.039 NA
ENDBRANCH   4   7
BRANCH   1  12
ATOM     11  N   UNL     1     -14.172  13.931  72.477  0.00  0.00    -0.126 NA
ATOM     12  C   UNL     1     -13.810  15.080  71.680  0.00  0.00    +0.136 C 
ENDBRANCH   1  12
TORSDOF 2
ENDMDL
MODEL 9
REMARK VINA RESULT:      -4.7      4.671      6.079
REMARK  Name = 
REMARK  2 active torsions:
REMARK  status: ('A' for Active; 'I' for Inactive)
REMARK    1  A    between atoms: C_2  and  C_3
REMARK    2  A    between atoms: C_6  and  S_7
REMARK                            x       y       z     vdW  Elec       q    Type
REMARK                         _______ _______ _______ _____ _____    ______ ____
ROOT
ATOM      1  C   UNL     1      -9.949  16.989  66.864  0.00  0.00    -0.003 A 
ATOM      2  C   UNL     1     -10.818  16.377  67.746  0.00  0.00    -0.001 A 
ATOM      3  C   UNL     1     -11.262  15.088  67.486  0.00  0.00    +0.020 A 
ATOM      4  C   UNL     1     -10.814  14.351  66.398  0.00  0.00    +0.125 A 
ATOM      5  C   UNL     1      -9.837  14.975  65.631  0.00  0.00    +0.020 A 
ATOM      6  C   UNL     1      -9.219  16.138  66.050  0.00  0.00    -0.001 A 
ENDROOT
BRANCH   4   7
ATOM      7  S   UNL     1     -11.899  13.272  65.523  0.00  0.00    +0.093 S 
ATOM      8  O   UNL     1     -13.188  14.000  65.292  0.00  0.00    -0.150 OA
ATOM      9  O   UNL     1     -12.147  12.038  66.360  0.00  0.00    -0.150 OA
ATOM     10  N   UNL     1     -11.264  12.862  63.974  0.00  0.00    +0.039 NA
ENDBRANCH   4   7
BRANCH   1  12
ATOM     11  N   UNL     1     -10.900  19.085  67.505  0.00  0.00    -0.126 NA
ATOM     12  C   UNL     1      -9.827  18.476  66.755  0.00  0.00    +0.136 C 
ENDBRANCH   1  12
TORSDOF 2
ENDMDL
