MODEL 1
REMARK VINA RESULT:      -6.7      0.000      0.000
REMARK  Name = 
REMARK  2 active torsions:
REMARK  status: ('A' for Active; 'I' for Inactive)
REMARK    1  A    between atoms: C_2  and  N_5
REMARK    2  A    between atoms: C_6  and  C_8
REMARK                            x       y       z     vdW  Elec       q    Type
REMARK                         _______ _______ _______ _____ _____    ______ ____
ROOT
ATOM      1  C   UNL     1     -11.960  14.487  67.404  0.00  0.00    +0.078 C 
ATOM      2  C   UNL     1     -11.184  13.299  68.186  0.00  0.00    +0.008 C 
ATOM      3  C   UNL     1     -11.565  12.215  67.044  0.00  0.00    +0.000 C 
ATOM      4  C   UNL     1     -10.380  11.200  67.682  0.00  0.00    +0.000 C 
ATOM      5  C   UNL     1     -11.551  10.406  68.605  0.00  0.00    +0.005 C 
ATOM      6  C   UNL     1     -11.481  11.505  69.797  0.00  0.00    +0.000 C 
ATOM      7  C   UNL     1     -10.460   9.463  69.311  0.00  0.00    +0.037 C 
ATOM      8  C   UNL     1     -10.226   8.243  68.252  0.00  0.00    +0.099 C 
ATOM      9  N   UNL     1      -8.891   7.785  68.955  0.00  0.00    -0.203 NA
ATOM     10  C   UNL     1      -8.999   7.536  70.358  0.00  0.00    +0.265 C 
ATOM     11  C   UNL     1     -10.261   7.892  71.022  0.00  0.00    +0.055 C 
ATOM     12  O   UNL     1      -7.959   7.393  71.073  0.00  0.00    -0.268 OA
ATOM     13  C   UNL     1      -9.406   9.158  67.162  0.00  0.00    +0.022 C 
ATOM     14  C   UNL     1      -9.230  10.132  69.622  0.00  0.00    +0.006 C 
ATOM     15  C   UNL     1     -11.105   8.736  70.419  0.00  0.00    -0.020 C 
ATOM     16  C   UNL     1     -10.455  10.080  66.534  0.00  0.00    +0.002 C 
ATOM     17  C   UNL     1     -10.576  12.974  66.017  0.00  0.00    +0.001 C 
ATOM     18  C   UNL     1      -9.753  13.568  68.157  0.00  0.00    +0.000 C 
ATOM     19  C   UNL     1     -11.906  12.827  69.331  0.00  0.00    +0.000 C 
ATOM     20  C   UNL     1     -10.923  14.396  66.143  0.00  0.00    +0.009 C 
ENDROOT
BRANCH   1  22
ATOM     21  N   UNL     1     -10.569  16.606  67.146  0.00  0.00    -0.209 NA
ATOM     22  C   UNL     1     -11.113  15.671  68.095  0.00  0.00    +0.241 C 
ATOM     23  O   UNL     1     -11.694  16.291  69.037  0.00  0.00    -0.273 OA
BRANCH  21  25
ATOM     24  C   UNL     1      -8.861  17.085  68.695  0.00  0.00    +0.022 C 
ATOM     25  C   UNL     1      -9.535  17.515  67.631  0.00  0.00    +0.079 C 
ATOM     26  C   UNL     1      -8.634  17.759  66.424  0.00  0.00    +0.022 C 
ATOM     27  C   UNL     1     -10.160  18.859  67.973  0.00  0.00    +0.022 C 
ENDBRANCH  21  25
ENDBRANCH   1  22
TORSDOF 2
ENDMDL
MODEL 2
REMARK VINA RESULT:      -6.6      1.227      1.436
REMARK  Name = 
REMARK  2 active torsions:
REMARK  status: ('A' for Active; 'I' for Inactive)
REMARK    1  A    between atoms: C_2  and  N_5
REMARK    2  A    between atoms: C_6  and  C_8
REMARK                            x       y       z     vdW  Elec       q    Type
REMARK                         _______ _______ _______ _____ _____    ______ ____
ROOT
ATOM      1  C   UNL     1     -11.358  15.688  66.535  0.00  0.00    +0.078 C 
ATOM      2  C   UNL     1     -10.795  14.419  67.369  0.00  0.00    +0.008 C 
ATOM      3  C   UNL     1     -11.308  13.372  66.245  0.00  0.00    +0.000 C 
ATOM      4  C   UNL     1     -10.311  12.207  66.944  0.00  0.00    +0.000 C 
ATOM      5  C   UNL     1     -11.613  11.631  67.851  0.00  0.00    +0.005 C 
ATOM      6  C   UNL     1     -11.405  12.740  69.017  0.00  0.00    +0.000 C 
ATOM      7  C   UNL     1     -10.700  10.553  68.613  0.00  0.00    +0.037 C 
ATOM      8  C   UNL     1     -10.629   9.280  67.594  0.00  0.00    +0.099 C 
ATOM      9  N   UNL     1      -9.399   8.644  68.348  0.00  0.00    -0.203 NA
ATOM     10  C   UNL     1      -9.580   8.456  69.753  0.00  0.00    +0.265 C 
ATOM     11  C   UNL     1     -10.789   9.022  70.369  0.00  0.00    +0.055 C 
ATOM     12  O   UNL     1      -8.593   8.177  70.502  0.00  0.00    -0.268 OA
ATOM     13  C   UNL     1      -9.650  10.026  66.506  0.00  0.00    +0.022 C 
ATOM     14  C   UNL     1      -9.390  11.034  68.944  0.00  0.00    +0.006 C 
ATOM     15  C   UNL     1     -11.477   9.966  69.720  0.00  0.00    -0.020 C 
ATOM     16  C   UNL     1     -10.528  11.078  65.823  0.00  0.00    +0.002 C 
ATOM     17  C   UNL     1     -10.188  13.939  65.229  0.00  0.00    +0.001 C 
ATOM     18  C   UNL     1      -9.339  14.464  67.377  0.00  0.00    +0.000 C 
ATOM     19  C   UNL     1     -11.610  14.098  68.504  0.00  0.00    +0.000 C 
ATOM     20  C   UNL     1     -10.315  15.402  65.308  0.00  0.00    +0.009 C 
ENDROOT
BRANCH   1  22
ATOM     21  N   UNL     1      -9.541  17.454  66.267  0.00  0.00    -0.209 NA
ATOM     22  C   UNL     1     -10.356  16.748  67.220  0.00  0.00    +0.241 C 
ATOM     23  O   UNL     1     -10.886  17.564  68.034  0.00  0.00    -0.273 OA
BRANCH  21  25
ATOM     24  C   UNL     1      -8.123  17.964  68.077  0.00  0.00    +0.022 C 
ATOM     25  C   UNL     1      -8.394  18.188  66.794  0.00  0.00    +0.079 C 
ATOM     26  C   UNL     1      -7.236  17.812  65.874  0.00  0.00    +0.022 C 
ATOM     27  C   UNL     1      -8.618  19.682  66.606  0.00  0.00    +0.022 C 
ENDBRANCH  21  25
ENDBRANCH   1  22
TORSDOF 2
ENDMDL
MODEL 3
REMARK VINA RESULT:      -6.5      2.548      7.371
REMARK  Name = 
REMARK  2 active torsions:
REMARK  status: ('A' for Active; 'I' for Inactive)
REMARK    1  A    between atoms: C_2  and  N_5
REMARK    2  A    between atoms: C_6  and  C_8
REMARK                            x       y       z     vdW  Elec       q    Type
REMARK                         _______ _______ _______ _____ _____    ______ ____
ROOT
ATOM      1  C   UNL     1      -8.708   9.059  69.174  0.00  0.00    +0.078 C 
ATOM      2  C   UNL     1      -9.560  10.234  68.454  0.00  0.00    +0.008 C 
ATOM      3  C   UNL     1      -9.051   9.788  66.983  0.00  0.00    +0.000 C 
ATOM      4  C   UNL     1     -10.294  10.716  66.325  0.00  0.00    +0.000 C 
ATOM      5  C   UNL     1      -9.229  12.012  66.129  0.00  0.00    +0.005 C 
ATOM      6  C   UNL     1      -9.435  12.526  67.655  0.00  0.00    +0.000 C 
ATOM      7  C   UNL     1     -10.386  12.975  65.572  0.00  0.00    +0.037 C 
ATOM      8  C   UNL     1     -10.497  12.608  63.985  0.00  0.00    +0.099 C 
ATOM      9  N   UNL     1     -11.900  13.313  63.839  0.00  0.00    -0.203 NA
ATOM     10  C   UNL     1     -11.945  14.669  64.289  0.00  0.00    +0.265 C 
ATOM     11  C   UNL     1     -10.766  15.200  64.987  0.00  0.00    +0.055 C 
ATOM     12  O   UNL     1     -13.057  15.263  64.443  0.00  0.00    -0.268 OA
ATOM     13  C   UNL     1     -11.195  11.141  64.229  0.00  0.00    +0.022 C 
ATOM     14  C   UNL     1     -11.646  12.812  66.237  0.00  0.00    +0.006 C 
ATOM     15  C   UNL     1      -9.864  14.352  65.492  0.00  0.00    -0.020 C 
ATOM     16  C   UNL     1     -10.088  10.253  64.802  0.00  0.00    +0.002 C 
ATOM     17  C   UNL     1      -9.924   8.436  67.109  0.00  0.00    +0.001 C 
ATOM     18  C   UNL     1     -10.981   9.945  68.597  0.00  0.00    +0.000 C 
ATOM     19  C   UNL     1      -8.967  11.529  68.621  0.00  0.00    +0.000 C 
ATOM     20  C   UNL     1      -9.599   7.902  68.440  0.00  0.00    +0.009 C 
ENDROOT
BRANCH   1  22
ATOM     21  N   UNL     1     -10.286   7.752  70.689  0.00  0.00    -0.209 NA
ATOM     22  C   UNL     1      -9.632   9.020  70.494  0.00  0.00    +0.241 C 
ATOM     23  O   UNL     1      -9.076   9.397  71.570  0.00  0.00    -0.273 OA
BRANCH  21  25
ATOM     24  C   UNL     1     -11.993   8.877  71.857  0.00  0.00    +0.022 C 
ATOM     25  C   UNL     1     -11.379   7.714  71.656  0.00  0.00    +0.079 C 
ATOM     26  C   UNL     1     -12.321   6.633  71.136  0.00  0.00    +0.022 C 
ATOM     27  C   UNL     1     -10.855   7.213  72.994  0.00  0.00    +0.022 C 
ENDBRANCH  21  25
ENDBRANCH   1  22
TORSDOF 2
ENDMDL
MODEL 4
REMARK VINA RESULT:      -6.5      2.322      7.747
REMARK  Name = 
REMARK  2 active torsions:
REMARK  status: ('A' for Active; 'I' for Inactive)
REMARK    1  A    between atoms: C_2  and  N_5
REMARK    2  A    between atoms: C_6  and  C_8
REMARK                            x       y       z     vdW  Elec       q    Type
REMARK                         _______ _______ _______ _____ _____    ______ ____
ROOT
ATOM      1  C   UNL     1     -11.586  12.277  66.437  0.00  0.00    +0.078 C 
ATOM      2  C   UNL     1     -10.513  13.460  66.708  0.00  0.00    +0.008 C 
ATOM      3  C   UNL     1     -11.643  14.422  67.357  0.00  0.00    +0.000 C 
ATOM      4  C   UNL     1     -10.402  15.368  67.993  0.00  0.00    +0.000 C 
ATOM      5  C   UNL     1     -10.506  16.405  66.664  0.00  0.00    +0.005 C 
ATOM      6  C   UNL     1      -9.543  15.471  65.750  0.00  0.00    +0.000 C 
ATOM      7  C   UNL     1      -9.274  17.300  67.174  0.00  0.00    +0.037 C 
ATOM      8  C   UNL     1      -9.937  18.336  68.247  0.00  0.00    +0.099 C 
ATOM      9  N   UNL     1      -8.536  18.725  68.857  0.00  0.00    -0.203 NA
ATOM     10  C   UNL     1      -7.564  19.167  67.907  0.00  0.00    +0.265 C 
ATOM     11  C   UNL     1      -7.896  19.048  66.480  0.00  0.00    +0.055 C 
ATOM     12  O   UNL     1      -6.342  19.281  68.236  0.00  0.00    -0.268 OA
ATOM     13  C   UNL     1     -10.189  17.198  69.404  0.00  0.00    +0.022 C 
ATOM     14  C   UNL     1      -8.212  16.541  67.766  0.00  0.00    +0.006 C 
ATOM     15  C   UNL     1      -8.888  18.236  66.102  0.00  0.00    -0.020 C 
ATOM     16  C   UNL     1     -11.335  16.329  68.878  0.00  0.00    +0.002 C 
ATOM     17  C   UNL     1     -11.739  13.427  68.625  0.00  0.00    +0.001 C 
ATOM     18  C   UNL     1      -9.580  13.026  67.739  0.00  0.00    +0.000 C 
ATOM     19  C   UNL     1     -10.145  14.157  65.511  0.00  0.00    +0.000 C 
ATOM     20  C   UNL     1     -11.844  12.082  68.040  0.00  0.00    +0.009 C 
ENDROOT
BRANCH   1  22
ATOM     21  N   UNL     1     -10.826   9.983  67.246  0.00  0.00    -0.209 NA
ATOM     22  C   UNL     1     -10.482  11.104  66.410  0.00  0.00    +0.241 C 
ATOM     23  O   UNL     1     -10.130  10.701  65.259  0.00  0.00    -0.273 OA
BRANCH  21  25
ATOM     24  C   UNL     1      -8.526   9.508  67.426  0.00  0.00    +0.022 C 
ATOM     25  C   UNL     1      -9.762   9.028  67.541  0.00  0.00    +0.079 C 
ATOM     26  C   UNL     1     -10.070   8.525  68.948  0.00  0.00    +0.022 C 
ATOM     27  C   UNL     1      -9.894   7.823  66.621  0.00  0.00    +0.022 C 
ENDBRANCH  21  25
ENDBRANCH   1  22
TORSDOF 2
ENDMDL
MODEL 5
REMARK VINA RESULT:      -6.5      2.000      3.301
REMARK  Name = 
REMARK  2 active torsions:
REMARK  status: ('A' for Active; 'I' for Inactive)
REMARK    1  A    between atoms: C_2  and  N_5
REMARK    2  A    between atoms: C_6  and  C_8
REMARK                            x       y       z     vdW  Elec       q    Type
REMARK                         _______ _______ _______ _____ _____    ______ ____
ROOT
ATOM      1  C   UNL     1     -10.547  17.901  67.537  0.00  0.00    +0.078 C 
ATOM      2  C   UNL     1     -10.258  16.374  67.993  0.00  0.00    +0.008 C 
ATOM      3  C   UNL     1     -11.317  15.785  66.918  0.00  0.00    +0.000 C 
ATOM      4  C   UNL     1     -10.624  14.265  67.140  0.00  0.00    +0.000 C 
ATOM      5  C   UNL     1     -11.811  13.887  68.281  0.00  0.00    +0.005 C 
ATOM      6  C   UNL     1     -11.004  14.610  69.489  0.00  0.00    +0.000 C 
ATOM      7  C   UNL     1     -11.153  12.458  68.599  0.00  0.00    +0.037 C 
ATOM      8  C   UNL     1     -11.724  11.473  67.430  0.00  0.00    +0.099 C 
ATOM      9  N   UNL     1     -10.633  10.371  67.715  0.00  0.00    -0.203 NA
ATOM     10  C   UNL     1     -10.553   9.935  69.074  0.00  0.00    +0.265 C 
ATOM     11  C   UNL     1     -11.347  10.663  70.075  0.00  0.00    +0.055 C 
ATOM     12  O   UNL     1      -9.571   9.236  69.474  0.00  0.00    -0.268 OA
ATOM     13  C   UNL     1     -10.820  12.139  66.231  0.00  0.00    +0.022 C 
ATOM     14  C   UNL     1      -9.719  12.472  68.620  0.00  0.00    +0.006 C 
ATOM     15  C   UNL     1     -11.816  11.880  69.783  0.00  0.00    -0.020 C 
ATOM     16  C   UNL     1     -11.436  13.517  65.975  0.00  0.00    +0.002 C 
ATOM     17  C   UNL     1     -10.325  16.229  65.724  0.00  0.00    +0.001 C 
ATOM     18  C   UNL     1      -8.902  16.011  67.604  0.00  0.00    +0.000 C 
ATOM     19  C   UNL     1     -10.864  16.049  69.252  0.00  0.00    +0.000 C 
ATOM     20  C   UNL     1      -9.950  17.615  66.042  0.00  0.00    +0.009 C 
ENDROOT
BRANCH   1  22
ATOM     21  N   UNL     1      -8.355  19.095  67.028  0.00  0.00    -0.209 NA
ATOM     22  C   UNL     1      -9.131  18.463  68.062  0.00  0.00    +0.241 C 
ATOM     23  O   UNL     1      -9.177  19.204  69.091  0.00  0.00    -0.273 OA
BRANCH  21  25
ATOM     24  C   UNL     1      -6.480  18.738  68.407  0.00  0.00    +0.022 C 
ATOM     25  C   UNL     1      -6.946  19.345  67.319  0.00  0.00    +0.079 C 
ATOM     26  C   UNL     1      -6.208  18.928  66.050  0.00  0.00    +0.022 C 
ATOM     27  C   UNL     1      -6.717  20.842  67.471  0.00  0.00    +0.022 C 
ENDBRANCH  21  25
ENDBRANCH   1  22
TORSDOF 2
ENDMDL
MODEL 6
REMARK VINA RESULT:      -6.5      4.386      9.238
REMARK  Name = 
REMARK  2 active torsions:
REMARK  status: ('A' for Active; 'I' for Inactive)
REMARK    1  A    between atoms: C_2  and  N_5
REMARK    2  A    between atoms: C_6  and  C_8
REMARK                            x       y       z     vdW  Elec       q    Type
REMARK                         _______ _______ _______ _____ _____    ______ ____
ROOT
ATOM      1  C   UNL     1     -10.324  17.166  67.296  0.00  0.00    +0.078 C 
ATOM      2  C   UNL     1      -8.848  17.674  66.864  0.00  0.00    +0.008 C 
ATOM      3  C   UNL     1      -8.487  18.116  68.380  0.00  0.00    +0.000 C 
ATOM      4  C   UNL     1      -6.866  18.181  67.923  0.00  0.00    +0.000 C 
ATOM      5  C   UNL     1      -7.009  19.840  67.640  0.00  0.00    +0.005 C 
ATOM      6  C   UNL     1      -7.589  19.623  66.140  0.00  0.00    +0.000 C 
ATOM      7  C   UNL     1      -5.495  19.955  67.115  0.00  0.00    +0.037 C 
ATOM      8  C   UNL     1      -4.600  20.092  68.473  0.00  0.00    +0.099 C 
ATOM      9  N   UNL     1      -3.259  19.746  67.718  0.00  0.00    -0.203 NA
ATOM     10  C   UNL     1      -2.987  20.549  66.568  0.00  0.00    +0.265 C 
ATOM     11  C   UNL     1      -4.037  21.472  66.112  0.00  0.00    +0.055 C 
ATOM     12  O   UNL     1      -2.074  20.220  65.749  0.00  0.00    -0.268 OA
ATOM     13  C   UNL     1      -4.809  18.531  68.938  0.00  0.00    +0.022 C 
ATOM     14  C   UNL     1      -5.073  18.840  66.318  0.00  0.00    +0.006 C 
ATOM     15  C   UNL     1      -5.295  21.291  66.526  0.00  0.00    -0.020 C 
ATOM     16  C   UNL     1      -6.268  18.433  69.391  0.00  0.00    +0.002 C 
ATOM     17  C   UNL     1      -8.459  16.559  68.809  0.00  0.00    +0.001 C 
ATOM     18  C   UNL     1      -8.044  16.523  66.478  0.00  0.00    +0.000 C 
ATOM     19  C   UNL     1      -8.877  18.924  66.163  0.00  0.00    +0.000 C 
ATOM     20  C   UNL     1      -9.691  15.992  68.242  0.00  0.00    +0.009 C 
ENDROOT
BRANCH   1  22
ATOM     21  N   UNL     1     -11.318  15.023  66.342  0.00  0.00    -0.209 NA
ATOM     22  C   UNL     1     -10.485  16.159  66.048  0.00  0.00    +0.241 C 
ATOM     23  O   UNL     1     -10.838  16.690  64.951  0.00  0.00    -0.273 OA
BRANCH  21  25
ATOM     24  C   UNL     1     -10.083  13.707  64.829  0.00  0.00    +0.022 C 
ATOM     25  C   UNL     1     -11.267  13.906  65.404  0.00  0.00    +0.079 C 
ATOM     26  C   UNL     1     -11.741  12.699  66.208  0.00  0.00    +0.022 C 
ATOM     27  C   UNL     1     -12.301  14.117  64.307  0.00  0.00    +0.022 C 
ENDBRANCH  21  25
ENDBRANCH   1  22
TORSDOF 2
ENDMDL
MODEL 7
REMARK VINA RESULT:      -6.4      3.806      8.607
REMARK  Name = 
REMARK  2 active torsions:
REMARK  status: ('A' for Active; 'I' for Inactive)
REMARK    1  A    between atoms: C_2  and  N_5
REMARK    2  A    between atoms: C_6  and  C_8
REMARK                            x       y       z     vdW  Elec       q    Type
REMARK                         _______ _______ _______ _____ _____    ______ ____
ROOT
ATOM      1  C   UNL     1     -10.773  15.472  67.688  0.00  0.00    +0.078 C 
ATOM      2  C   UNL     1      -9.543  16.392  67.175  0.00  0.00    +0.008 C 
ATOM      3  C   UNL     1      -8.982  16.592  68.681  0.00  0.00    +0.000 C 
ATOM      4  C   UNL     1      -7.529  17.130  68.016  0.00  0.00    +0.000 C 
ATOM      5  C   UNL     1      -8.050  18.730  68.164  0.00  0.00    +0.005 C 
ATOM      6  C   UNL     1      -8.863  18.688  66.760  0.00  0.00    +0.000 C 
ATOM      7  C   UNL     1      -6.725  19.303  67.463  0.00  0.00    +0.037 C 
ATOM      8  C   UNL     1      -5.622  19.374  68.664  0.00  0.00    +0.099 C 
ATOM      9  N   UNL     1      -4.417  19.514  67.657  0.00  0.00    -0.203 NA
ATOM     10  C   UNL     1      -4.543  20.574  66.706  0.00  0.00    +0.265 C 
ATOM     11  C   UNL     1      -5.824  21.293  66.646  0.00  0.00    +0.055 C 
ATOM     12  O   UNL     1      -3.764  20.642  65.704  0.00  0.00    -0.268 OA
ATOM     13  C   UNL     1      -5.422  17.747  68.766  0.00  0.00    +0.022 C 
ATOM     14  C   UNL     1      -6.257  18.504  66.367  0.00  0.00    +0.006 C 
ATOM     15  C   UNL     1      -6.914  20.740  67.188  0.00  0.00    -0.020 C 
ATOM     16  C   UNL     1      -6.713  17.216  69.396  0.00  0.00    +0.002 C 
ATOM     17  C   UNL     1      -8.563  15.033  68.715  0.00  0.00    +0.001 C 
ATOM     18  C   UNL     1      -8.620  15.565  66.408  0.00  0.00    +0.000 C 
ATOM     19  C   UNL     1      -9.957  17.714  66.807  0.00  0.00    +0.000 C 
ATOM     20  C   UNL     1      -9.746  14.315  68.219  0.00  0.00    +0.009 C 
ENDROOT
BRANCH   1  22
ATOM     21  N   UNL     1     -11.253  13.321  66.408  0.00  0.00    -0.209 NA
ATOM     22  C   UNL     1     -10.977  14.727  66.274  0.00  0.00    +0.241 C 
ATOM     23  O   UNL     1     -11.810  15.264  65.481  0.00  0.00    -0.273 OA
BRANCH  21  25
ATOM     24  C   UNL     1     -10.308  12.985  64.278  0.00  0.00    +0.022 C 
ATOM     25  C   UNL     1     -11.135  12.506  65.204  0.00  0.00    +0.079 C 
ATOM     26  C   UNL     1     -10.721  11.126  65.707  0.00  0.00    +0.022 C 
ATOM     27  C   UNL     1     -12.509  12.332  64.572  0.00  0.00    +0.022 C 
ENDBRANCH  21  25
ENDBRANCH   1  22
TORSDOF 2
ENDMDL
MODEL 8
REMARK VINA RESULT:      -6.3      3.679      4.891
REMARK  Name = 
REMARK  2 active torsions:
REMARK  status: ('A' for Active; 'I' for Inactive)
REMARK    1  A    between atoms: C_2  and  N_5
REMARK    2  A    between atoms: C_6  and  C_8
REMARK                            x       y       z     vdW  Elec       q    Type
REMARK                         _______ _______ _______ _____ _____    ______ ____
ROOT
ATOM      1  C   UNL     1      -9.220  16.507  69.134  0.00  0.00    +0.078 C 
ATOM      2  C   UNL     1      -9.190  15.468  67.892  0.00  0.00    +0.008 C 
ATOM      3  C   UNL     1     -10.795  15.259  67.945  0.00  0.00    +0.000 C 
ATOM      4  C   UNL     1     -10.708  14.576  66.407  0.00  0.00    +0.000 C 
ATOM      5  C   UNL     1     -10.641  13.033  67.092  0.00  0.00    +0.005 C 
ATOM      6  C   UNL     1      -9.037  13.110  67.323  0.00  0.00    +0.000 C 
ATOM      7  C   UNL     1     -10.473  12.325  65.660  0.00  0.00    +0.037 C 
ATOM      8  C   UNL     1     -11.996  12.189  65.089  0.00  0.00    +0.099 C 
ATOM      9  N   UNL     1     -11.502  11.915  63.616  0.00  0.00    -0.203 NA
ATOM     10  C   UNL     1     -10.564  10.846  63.481  0.00  0.00    +0.265 C 
ATOM     11  C   UNL     1     -10.030  10.242  64.711  0.00  0.00    +0.055 C 
ATOM     12  O   UNL     1      -9.919  10.682  62.398  0.00  0.00    -0.268 OA
ATOM     13  C   UNL     1     -12.177  13.794  64.790  0.00  0.00    +0.022 C 
ATOM     14  C   UNL     1      -9.633  13.050  64.751  0.00  0.00    +0.006 C 
ATOM     15  C   UNL     1     -10.136  10.905  65.867  0.00  0.00    -0.020 C 
ATOM     16  C   UNL     1     -12.291  14.454  66.167  0.00  0.00    +0.002 C 
ATOM     17  C   UNL     1     -10.993  16.774  67.426  0.00  0.00    +0.001 C 
ATOM     18  C   UNL     1      -8.823  16.188  66.680  0.00  0.00    +0.000 C 
ATOM     19  C   UNL     1      -8.684  14.178  68.263  0.00  0.00    +0.000 C 
ATOM     20  C   UNL     1     -10.102  17.581  68.272  0.00  0.00    +0.009 C 
ENDROOT
BRANCH   1  22
ATOM     21  N   UNL     1      -7.935  18.664  68.700  0.00  0.00    -0.209 NA
ATOM     22  C   UNL     1      -7.836  17.229  68.734  0.00  0.00    +0.241 C 
ATOM     23  O   UNL     1      -6.815  16.875  69.398  0.00  0.00    -0.273 OA
BRANCH  21  25
ATOM     24  C   UNL     1      -6.044  18.636  67.297  0.00  0.00    +0.022 C 
ATOM     25  C   UNL     1      -6.849  19.387  68.046  0.00  0.00    +0.079 C 
ATOM     26  C   UNL     1      -7.539  20.488  67.248  0.00  0.00    +0.022 C 
ATOM     27  C   UNL     1      -6.003  20.091  69.098  0.00  0.00    +0.022 C 
ENDBRANCH  21  25
ENDBRANCH   1  22
TORSDOF 2
ENDMDL
MODEL 9
REMARK VINA RESULT:      -6.3      3.482      5.744
REMARK  Name = 
REMARK  2 active torsions:
REMARK  status: ('A' for Active; 'I' for Inactive)
REMARK    1  A    between atoms: C_2  and  N_5
REMARK    2  A    between atoms: C_6  and  C_8
REMARK                            x       y       z     vdW  Elec       q    Type
REMARK                         _______ _______ _______ _____ _____    ______ ____
ROOT
ATOM      1  C   UNL     1      -8.807  19.191  68.480  0.00  0.00    +0.078 C 
ATOM      2  C   UNL     1      -8.912  17.658  67.967  0.00  0.00    +0.008 C 
ATOM      3  C   UNL     1     -10.303  17.947  67.189  0.00  0.00    +0.000 C 
ATOM      4  C   UNL     1     -10.081  16.500  66.354  0.00  0.00    +0.000 C 
ATOM      5  C   UNL     1     -11.056  15.699  67.477  0.00  0.00    +0.005 C 
ATOM      6  C   UNL     1      -9.829  15.475  68.515  0.00  0.00    +0.000 C 
ATOM      7  C   UNL     1     -10.818  14.274  66.775  0.00  0.00    +0.037 C 
ATOM      8  C   UNL     1     -11.899  14.232  65.554  0.00  0.00    +0.099 C 
ATOM      9  N   UNL     1     -11.166  13.032  64.841  0.00  0.00    -0.203 NA
ATOM     10  C   UNL     1     -10.937  11.887  65.665  0.00  0.00    +0.265 C 
ATOM     11  C   UNL     1     -11.237  12.004  67.100  0.00  0.00    +0.055 C 
ATOM     12  O   UNL     1     -10.157  10.959  65.284  0.00  0.00    -0.268 OA
ATOM     13  C   UNL     1     -11.110  15.337  64.630  0.00  0.00    +0.022 C 
ATOM     14  C   UNL     1      -9.479  14.079  66.299  0.00  0.00    +0.006 C 
ATOM     15  C   UNL     1     -11.359  13.216  67.649  0.00  0.00    -0.020 C 
ATOM     16  C   UNL     1     -11.311  16.679  65.339  0.00  0.00    +0.002 C 
ATOM     17  C   UNL     1      -9.499  18.859  66.126  0.00  0.00    +0.001 C 
ATOM     18  C   UNL     1      -7.848  17.406  67.004  0.00  0.00    +0.000 C 
ATOM     19  C   UNL     1      -9.306  16.753  69.006  0.00  0.00    +0.000 C 
ATOM     20  C   UNL     1      -8.658  19.741  66.948  0.00  0.00    +0.009 C 
ENDROOT
BRANCH   1  22
ATOM     21  N   UNL     1      -6.542  20.315  68.169  0.00  0.00    -0.209 NA
ATOM     22  C   UNL     1      -7.209  19.149  68.686  0.00  0.00    +0.241 C 
ATOM     23  O   UNL     1      -6.809  18.901  69.864  0.00  0.00    -0.273 OA
BRANCH  21  25
ATOM     24  C   UNL     1      -4.616  19.007  67.814  0.00  0.00    +0.022 C 
ATOM     25  C   UNL     1      -5.093  20.233  68.015  0.00  0.00    +0.079 C 
ATOM     26  C   UNL     1      -4.769  21.186  66.869  0.00  0.00    +0.022 C 
ATOM     27  C   UNL     1      -4.418  20.811  69.251  0.00  0.00    +0.022 C 
ENDBRANCH  21  25
ENDBRANCH   1  22
TORSDOF 2
ENDMDL
