MODEL 1
REMARK VINA RESULT:      -4.2      0.000      0.000
REMARK  Name = 
REMARK  0 active torsions:
REMARK  status: ('A' for Active; 'I' for Inactive)
REMARK                            x       y       z     vdW  Elec       q    Type
REMARK                         _______ _______ _______ _____ _____    ______ ____
ROOT
ATOM      1  N   UNL     1     -10.937  14.282  66.497  0.00  0.00    -0.119 NA
ATOM      2  C   UNL     1     -10.620  14.687  65.002  0.00  0.00    +0.221 C 
ATOM      3  C   UNL     1     -12.168  14.835  64.569  0.00  0.00    +0.311 C 
ATOM      4  O   UNL     1     -13.172  14.087  65.098  0.00  0.00    -0.265 OA
ATOM      5  N   UNL     1     -12.177  15.906  63.831  0.00  0.00    -0.043 NA
ATOM      6  O   UNL     1     -11.299  16.827  64.307  0.00  0.00    -0.373 OA
ATOM      7  C   UNL     1     -10.536  16.288  65.380  0.00  0.00    +0.267 C 
ENDROOT
TORSDOF 0
ENDMDL
MODEL 2
REMARK VINA RESULT:      -3.9      9.841     10.841
REMARK  Name = 
REMARK  0 active torsions:
REMARK  status: ('A' for Active; 'I' for Inactive)
REMARK                            x       y       z     vdW  Elec       q    Type
REMARK                         _______ _______ _______ _____ _____    ______ ____
ROOT
ATOM      1  N   UNL     1      -5.111  18.537  71.794  0.00  0.00    -0.119 NA
ATOM      2  C   UNL     1      -5.720  19.996  71.803  0.00  0.00    +0.221 C 
ATOM      3  C   UNL     1      -4.294  20.741  71.931  0.00  0.00    +0.311 C 
ATOM      4  O   UNL     1      -3.228  20.215  72.589  0.00  0.00    -0.265 OA
ATOM      5  N   UNL     1      -4.404  21.751  71.120  0.00  0.00    -0.043 NA
ATOM      6  O   UNL     1      -5.130  21.412  70.023  0.00  0.00    -0.373 OA
ATOM      7  C   UNL     1      -5.668  20.102  70.160  0.00  0.00    +0.267 C 
ENDROOT
TORSDOF 0
ENDMDL
MODEL 3
REMARK VINA RESULT:      -3.8      1.601      2.697
REMARK  Name = 
REMARK  0 active torsions:
REMARK  status: ('A' for Active; 'I' for Inactive)
REMARK                            x       y       z     vdW  Elec       q    Type
REMARK                         _______ _______ _______ _____ _____    ______ ____
ROOT
ATOM      1  N   UNL     1     -12.571  14.462  63.999  0.00  0.00    -0.119 NA
ATOM      2  C   UNL     1     -11.228  14.250  64.808  0.00  0.00    +0.221 C 
ATOM      3  C   UNL     1     -10.956  15.825  65.037  0.00  0.00    +0.311 C 
ATOM      4  O   UNL     1     -11.322  16.788  64.152  0.00  0.00    -0.265 OA
ATOM      5  N   UNL     1     -10.546  15.886  66.270  0.00  0.00    -0.043 NA
ATOM      6  O   UNL     1     -11.200  14.979  67.041  0.00  0.00    -0.373 OA
ATOM      7  C   UNL     1     -12.030  14.143  66.243  0.00  0.00    +0.267 C 
ENDROOT
TORSDOF 0
ENDMDL
MODEL 4
REMARK VINA RESULT:      -3.8      7.395      7.893
REMARK  Name = 
REMARK  0 active torsions:
REMARK  status: ('A' for Active; 'I' for Inactive)
REMARK                            x       y       z     vdW  Elec       q    Type
REMARK                         _______ _______ _______ _____ _____    ______ ____
ROOT
ATOM      1  N   UNL     1     -13.984  13.732  72.559  0.00  0.00    -0.119 NA
ATOM      2  C   UNL     1     -13.945  15.292  72.306  0.00  0.00    +0.221 C 
ATOM      3  C   UNL     1     -12.639  15.547  73.220  0.00  0.00    +0.311 C 
ATOM      4  O   UNL     1     -12.339  14.813  74.324  0.00  0.00    -0.265 OA
ATOM      5  N   UNL     1     -11.944  16.401  72.527  0.00  0.00    -0.043 NA
ATOM      6  O   UNL     1     -12.058  16.149  71.197  0.00  0.00    -0.373 OA
ATOM      7  C   UNL     1     -13.012  15.120  70.959  0.00  0.00    +0.267 C 
ENDROOT
TORSDOF 0
ENDMDL
MODEL 5
REMARK VINA RESULT:      -3.8      1.281      2.360
REMARK  Name = 
REMARK  0 active torsions:
REMARK  status: ('A' for Active; 'I' for Inactive)
REMARK                            x       y       z     vdW  Elec       q    Type
REMARK                         _______ _______ _______ _____ _____    ______ ____
ROOT
ATOM      1  N   UNL     1      -9.748  15.027  65.494  0.00  0.00    -0.119 NA
ATOM      2  C   UNL     1     -11.259  14.590  65.668  0.00  0.00    +0.221 C 
ATOM      3  C   UNL     1     -11.820  15.576  64.520  0.00  0.00    +0.311 C 
ATOM      4  O   UNL     1     -11.267  16.783  64.229  0.00  0.00    -0.265 OA
ATOM      5  N   UNL     1     -12.698  14.847  63.896  0.00  0.00    -0.043 NA
ATOM      6  O   UNL     1     -12.290  13.553  63.830  0.00  0.00    -0.373 OA
ATOM      7  C   UNL     1     -11.099  13.360  64.585  0.00  0.00    +0.267 C 
ENDROOT
TORSDOF 0
ENDMDL
MODEL 6
REMARK VINA RESULT:      -3.7      6.669      7.413
REMARK  Name = 
REMARK  0 active torsions:
REMARK  status: ('A' for Active; 'I' for Inactive)
REMARK                            x       y       z     vdW  Elec       q    Type
REMARK                         _______ _______ _______ _____ _____    ______ ____
ROOT
ATOM      1  N   UNL     1     -12.692  15.901  70.489  0.00  0.00    -0.119 NA
ATOM      2  C   UNL     1     -12.426  15.026  71.780  0.00  0.00    +0.221 C 
ATOM      3  C   UNL     1     -13.987  14.844  72.147  0.00  0.00    +0.311 C 
ATOM      4  O   UNL     1     -14.936  15.781  71.883  0.00  0.00    -0.265 OA
ATOM      5  N   UNL     1     -14.071  13.598  72.509  0.00  0.00    -0.043 NA
ATOM      6  O   UNL     1     -13.240  12.823  71.765  0.00  0.00    -0.373 OA
ATOM      7  C   UNL     1     -12.429  13.625  70.915  0.00  0.00    +0.267 C 
ENDROOT
TORSDOF 0
ENDMDL
MODEL 7
REMARK VINA RESULT:      -3.6      2.026      2.919
REMARK  Name = 
REMARK  0 active torsions:
REMARK  status: ('A' for Active; 'I' for Inactive)
REMARK                            x       y       z     vdW  Elec       q    Type
REMARK                         _______ _______ _______ _____ _____    ______ ____
ROOT
ATOM      1  N   UNL     1     -10.827  15.138  65.972  0.00  0.00    -0.119 NA
ATOM      2  C   UNL     1     -12.025  14.237  66.477  0.00  0.00    +0.221 C 
ATOM      3  C   UNL     1     -12.646  13.999  65.006  0.00  0.00    +0.311 C 
ATOM      4  O   UNL     1     -12.578  14.914  64.003  0.00  0.00    -0.265 OA
ATOM      5  N   UNL     1     -12.978  12.742  65.016  0.00  0.00    -0.043 NA
ATOM      6  O   UNL     1     -12.079  12.011  65.726  0.00  0.00    -0.373 OA
ATOM      7  C   UNL     1     -11.129  12.860  66.360  0.00  0.00    +0.267 C 
ENDROOT
TORSDOF 0
ENDMDL
MODEL 8
REMARK VINA RESULT:      -3.6      6.945      7.433
REMARK  Name = 
REMARK  0 active torsions:
REMARK  status: ('A' for Active; 'I' for Inactive)
REMARK                            x       y       z     vdW  Elec       q    Type
REMARK                         _______ _______ _______ _____ _____    ______ ____
ROOT
ATOM      1  N   UNL     1     -12.482  13.882  70.594  0.00  0.00    -0.119 NA
ATOM      2  C   UNL     1     -13.092  15.296  70.956  0.00  0.00    +0.221 C 
ATOM      3  C   UNL     1     -13.712  14.821  72.369  0.00  0.00    +0.311 C 
ATOM      4  O   UNL     1     -14.172  13.563  72.604  0.00  0.00    -0.265 OA
ATOM      5  N   UNL     1     -13.451  15.815  73.166  0.00  0.00    -0.043 NA
ATOM      6  O   UNL     1     -12.246  16.367  72.869  0.00  0.00    -0.373 OA
ATOM      7  C   UNL     1     -11.701  15.784  71.691  0.00  0.00    +0.267 C 
ENDROOT
TORSDOF 0
ENDMDL
MODEL 9
REMARK VINA RESULT:      -3.5      2.969      3.559
REMARK  Name = 
REMARK  0 active torsions:
REMARK  status: ('A' for Active; 'I' for Inactive)
REMARK                            x       y       z     vdW  Elec       q    Type
REMARK                         _______ _______ _______ _____ _____    ______ ____
ROOT
ATOM      1  N   UNL     1      -9.969  12.335  65.399  0.00  0.00    -0.119 NA
ATOM      2  C   UNL     1     -10.994  13.210  64.570  0.00  0.00    +0.221 C 
ATOM      3  C   UNL     1     -11.439  12.007  63.589  0.00  0.00    +0.311 C 
ATOM      4  O   UNL     1     -10.607  11.003  63.206  0.00  0.00    -0.265 OA
ATOM      5  N   UNL     1     -12.726  12.158  63.487  0.00  0.00    -0.043 NA
ATOM      6  O   UNL     1     -13.256  12.583  64.664  0.00  0.00    -0.373 OA
ATOM      7  C   UNL     1     -12.228  12.869  65.605  0.00  0.00    +0.267 C 
ENDROOT
TORSDOF 0
ENDMDL
