MODEL 1
REMARK VINA RESULT:      -5.7      0.000      0.000
REMARK  Name = 
REMARK  5 active torsions:
REMARK  status: ('A' for Active; 'I' for Inactive)
REMARK    1  A    between atoms: N_2  and  C_4
REMARK    2  A    between atoms: C_4  and  C_5
REMARK    3  A    between atoms: C_5  and  C_6
REMARK    4  A    between atoms: C_6  and  C_7
REMARK    5  A    between atoms: C_6  and  C_14
REMARK                            x       y       z     vdW  Elec       q    Type
REMARK                         _______ _______ _______ _____ _____    ______ ____
ROOT
ATOM      1  C   UNL     1      -9.883  15.924  68.136  0.00  0.00    +0.064 C 
ENDROOT
BRANCH   1   2
ATOM      2  C   UNL     1     -11.313  15.630  68.876  0.00  0.00    -0.017 A 
ATOM      3  C   UNL     1     -11.423  16.137  70.144  0.00  0.00    -0.003 A 
ATOM      4  C   UNL     1     -12.234  15.600  71.115  0.00  0.00    +0.011 A 
ATOM      5  C   UNL     1     -12.495  14.241  70.987  0.00  0.00    +0.058 A 
ATOM      6 CL   UNL     1     -13.540  13.540  72.212  0.00  0.00    -0.082 Cl
ATOM      7  C   UNL     1     -12.050  13.536  69.886  0.00  0.00    +0.011 A 
ATOM      8  C   UNL     1     -11.524  14.251  68.814  0.00  0.00    -0.003 A 
ENDBRANCH   1   2
BRANCH   1   9
ATOM      9  C   UNL     1      -9.991  17.550  68.318  0.00  0.00    +0.063 A 
ATOM     10  N   UNL     1      -8.706  17.987  68.417  0.00  0.00    -0.248 NA
ATOM     11  C   UNL     1      -8.399  19.297  68.326  0.00  0.00    +0.098 A 
ATOM     12  C   UNL     1      -9.329  20.085  67.662  0.00  0.00    +0.021 A 
ATOM     13  C   UNL     1     -10.491  19.530  67.148  0.00  0.00    +0.003 A 
ATOM     14  C   UNL     1     -10.660  18.159  67.259  0.00  0.00    +0.015 A 
ENDBRANCH   1   9
BRANCH   1  15
ATOM     15  C   UNL     1     -10.624  15.985  66.643  0.00  0.00    +0.028 C 
BRANCH  15  16
ATOM     16  C   UNL     1      -9.713  15.125  65.806  0.00  0.00    +0.073 C 
BRANCH  16  18
ATOM     17  C   UNL     1     -10.327  13.651  64.994  0.00  0.00    +0.090 C 
ATOM     18  N   UNL     1     -10.496  14.087  65.144  0.00  0.00    -0.270 NA
ATOM     19  C   UNL     1     -11.778  14.701  64.819  0.00  0.00    +0.090 C 
ENDBRANCH  16  18
ENDBRANCH  15  16
ENDBRANCH   1  15
TORSDOF 5
ENDMDL
MODEL 2
REMARK VINA RESULT:      -5.7      2.643      5.203
REMARK  Name = 
REMARK  5 active torsions:
REMARK  status: ('A' for Active; 'I' for Inactive)
REMARK    1  A    between atoms: N_2  and  C_4
REMARK    2  A    between atoms: C_4  and  C_5
REMARK    3  A    between atoms: C_5  and  C_6
REMARK    4  A    between atoms: C_6  and  C_7
REMARK    5  A    between atoms: C_6  and  C_14
REMARK                            x       y       z     vdW  Elec       q    Type
REMARK                         _______ _______ _______ _____ _____    ______ ____
ROOT
ATOM      1  C   UNL     1     -10.855  14.743  69.542  0.00  0.00    +0.064 C 
ENDROOT
BRANCH   1   2
ATOM      2  C   UNL     1     -11.786  13.957  68.448  0.00  0.00    -0.017 A 
ATOM      3  C   UNL     1     -11.441  12.649  68.229  0.00  0.00    -0.003 A 
ATOM      4  C   UNL     1     -11.683  11.980  67.053  0.00  0.00    +0.011 A 
ATOM      5  C   UNL     1     -11.754  12.781  65.919  0.00  0.00    +0.058 A 
ATOM      6 CL   UNL     1     -12.075  11.945  64.408  0.00  0.00    -0.082 Cl
ATOM      7  C   UNL     1     -11.698  14.157  66.020  0.00  0.00    +0.011 A 
ATOM      8  C   UNL     1     -11.782  14.729  67.285  0.00  0.00    -0.003 A 
ENDBRANCH   1   2
BRANCH   1   9
ATOM      9  C   UNL     1     -11.933  14.559  70.763  0.00  0.00    +0.063 A 
ATOM     10  N   UNL     1     -11.356  15.151  71.844  0.00  0.00    -0.248 NA
ATOM     11  C   UNL     1     -12.059  15.411  72.964  0.00  0.00    +0.098 A 
ATOM     12  C   UNL     1     -13.434  15.508  72.799  0.00  0.00    +0.021 A 
ATOM     13  C   UNL     1     -14.012  15.333  71.550  0.00  0.00    +0.003 A 
ATOM     14  C   UNL     1     -13.170  15.126  70.469  0.00  0.00    +0.015 A 
ENDBRANCH   1   9
BRANCH   1  15
ATOM     15  C   UNL     1     -11.514  16.211  69.105  0.00  0.00    +0.028 C 
BRANCH  15  16
ATOM     16  C   UNL     1     -10.308  17.113  69.123  0.00  0.00    +0.073 C 
BRANCH  16  18
ATOM     17  C   UNL     1     -10.628  18.081  67.649  0.00  0.00    +0.090 C 
ATOM     18  N   UNL     1     -10.458  18.149  68.106  0.00  0.00    -0.270 NA
ATOM     19  C   UNL     1      -9.794  19.331  68.640  0.00  0.00    +0.090 C 
ENDBRANCH  16  18
ENDBRANCH  15  16
ENDBRANCH   1  15
TORSDOF 5
ENDMDL
MODEL 3
REMARK VINA RESULT:      -5.5      2.968      5.685
REMARK  Name = 
REMARK  5 active torsions:
REMARK  status: ('A' for Active; 'I' for Inactive)
REMARK    1  A    between atoms: N_2  and  C_4
REMARK    2  A    between atoms: C_4  and  C_5
REMARK    3  A    between atoms: C_5  and  C_6
REMARK    4  A    between atoms: C_6  and  C_7
REMARK    5  A    between atoms: C_6  and  C_14
REMARK                            x       y       z     vdW  Elec       q    Type
REMARK                         _______ _______ _______ _____ _____    ______ ____
ROOT
ATOM      1  C   UNL     1     -10.293  13.960  66.835  0.00  0.00    +0.064 C 
ENDROOT
BRANCH   1   2
ATOM      2  C   UNL     1     -10.904  15.478  66.877  0.00  0.00    -0.017 A 
ATOM      3  C   UNL     1     -10.318  16.362  66.010  0.00  0.00    -0.003 A 
ATOM      4  C   UNL     1     -10.266  17.719  66.220  0.00  0.00    +0.011 A 
ATOM      5  C   UNL     1     -10.298  18.115  67.552  0.00  0.00    +0.058 A 
ATOM      6 CL   UNL     1     -10.244  19.847  67.839  0.00  0.00    -0.082 Cl
ATOM      7  C   UNL     1     -10.488  17.192  68.561  0.00  0.00    +0.011 A 
ATOM      8  C   UNL     1     -10.855  15.897  68.208  0.00  0.00    -0.003 A 
ENDBRANCH   1   2
BRANCH   1   9
ATOM      9  C   UNL     1     -10.943  13.614  65.371  0.00  0.00    +0.063 A 
ATOM     10  N   UNL     1     -10.132  12.663  64.833  0.00  0.00    -0.248 NA
ATOM     11  C   UNL     1     -10.498  11.961  63.741  0.00  0.00    +0.098 A 
ATOM     12  C   UNL     1     -11.863  11.894  63.502  0.00  0.00    +0.021 A 
ATOM     13  C   UNL     1     -12.763  12.529  64.345  0.00  0.00    +0.003 A 
ATOM     14  C   UNL     1     -12.260  13.170  65.466  0.00  0.00    +0.015 A 
ENDBRANCH   1   9
BRANCH   1  15
ATOM     15  C   UNL     1     -11.628  13.358  67.634  0.00  0.00    +0.028 C 
BRANCH  15  16
ATOM     16  C   UNL     1     -11.001  12.398  68.610  0.00  0.00    +0.073 C 
BRANCH  16  18
ATOM     17  C   UNL     1     -12.048  10.971  68.891  0.00  0.00    +0.090 C 
ATOM     18  N   UNL     1     -11.713  11.125  68.566  0.00  0.00    -0.270 NA
ATOM     19  C   UNL     1     -11.061  10.340  67.525  0.00  0.00    +0.090 C 
ENDBRANCH  16  18
ENDBRANCH  15  16
ENDBRANCH   1  15
TORSDOF 5
ENDMDL
MODEL 4
REMARK VINA RESULT:      -5.5      3.133      4.237
REMARK  Name = 
REMARK  5 active torsions:
REMARK  status: ('A' for Active; 'I' for Inactive)
REMARK    1  A    between atoms: N_2  and  C_4
REMARK    2  A    between atoms: C_4  and  C_5
REMARK    3  A    between atoms: C_5  and  C_6
REMARK    4  A    between atoms: C_6  and  C_7
REMARK    5  A    between atoms: C_6  and  C_14
REMARK                            x       y       z     vdW  Elec       q    Type
REMARK                         _______ _______ _______ _____ _____    ______ ____
ROOT
ATOM      1  C   UNL     1      -9.863  15.643  67.360  0.00  0.00    +0.064 C 
ENDROOT
BRANCH   1   2
ATOM      2  C   UNL     1     -10.842  15.234  66.113  0.00  0.00    -0.017 A 
ATOM      3  C   UNL     1     -11.970  14.541  66.467  0.00  0.00    -0.003 A 
ATOM      4  C   UNL     1     -12.622  13.665  65.633  0.00  0.00    +0.011 A 
ATOM      5  C   UNL     1     -11.828  13.065  64.662  0.00  0.00    +0.058 A 
ATOM      6 CL   UNL     1     -12.647  11.951  63.579  0.00  0.00    -0.082 Cl
ATOM      7  C   UNL     1     -10.507  13.435  64.501  0.00  0.00    +0.011 A 
ATOM      8  C   UNL     1     -10.050  14.559  65.182  0.00  0.00    -0.003 A 
ENDBRANCH   1   2
BRANCH   1   9
ATOM      9  C   UNL     1     -10.440  17.175  67.461  0.00  0.00    +0.063 A 
ATOM     10  N   UNL     1      -9.737  17.758  68.470  0.00  0.00    -0.248 NA
ATOM     11  C   UNL     1      -9.767  19.091  68.671  0.00  0.00    +0.098 A 
ATOM     12  C   UNL     1     -10.119  19.855  67.567  0.00  0.00    +0.021 A 
ATOM     13  C   UNL     1     -10.423  19.253  66.355  0.00  0.00    +0.003 A 
ATOM     14  C   UNL     1     -10.298  17.876  66.266  0.00  0.00    +0.015 A 
ENDBRANCH   1   9
BRANCH   1  15
ATOM     15  C   UNL     1      -8.654  16.107  66.308  0.00  0.00    +0.028 C 
BRANCH  15  16
ATOM     16  C   UNL     1      -7.415  15.679  67.050  0.00  0.00    +0.073 C 
BRANCH  16  18
ATOM     17  C   UNL     1      -6.291  16.944  67.639  0.00  0.00    +0.090 C 
ATOM     18  N   UNL     1      -6.532  16.828  67.227  0.00  0.00    -0.270 NA
ATOM     19  C   UNL     1      -6.709  17.653  66.038  0.00  0.00    +0.090 C 
ENDBRANCH  16  18
ENDBRANCH  15  16
ENDBRANCH   1  15
TORSDOF 5
ENDMDL
MODEL 5
REMARK VINA RESULT:      -5.5      2.199      5.212
REMARK  Name = 
REMARK  5 active torsions:
REMARK  status: ('A' for Active; 'I' for Inactive)
REMARK    1  A    between atoms: N_2  and  C_4
REMARK    2  A    between atoms: C_4  and  C_5
REMARK    3  A    between atoms: C_5  and  C_6
REMARK    4  A    between atoms: C_6  and  C_7
REMARK    5  A    between atoms: C_6  and  C_14
REMARK                            x       y       z     vdW  Elec       q    Type
REMARK                         _______ _______ _______ _____ _____    ______ ____
ROOT
ATOM      1  C   UNL     1     -11.900  13.723  67.019  0.00  0.00    +0.064 C 
ENDROOT
BRANCH   1   2
ATOM      2  C   UNL     1     -11.296  12.761  68.197  0.00  0.00    -0.017 A 
ATOM      3  C   UNL     1     -11.509  11.420  68.014  0.00  0.00    -0.003 A 
ATOM      4  C   UNL     1     -11.590  10.511  69.042  0.00  0.00    +0.011 A 
ATOM      5  C   UNL     1     -12.019  11.027  70.259  0.00  0.00    +0.058 A 
ATOM      6 CL   UNL     1     -12.117   9.882  71.587  0.00  0.00    -0.082 Cl
ATOM      7  C   UNL     1     -12.228  12.383  70.418  0.00  0.00    +0.011 A 
ATOM      8  C   UNL     1     -11.800  13.238  69.408  0.00  0.00    -0.003 A 
ENDBRANCH   1   2
BRANCH   1   9
ATOM      9  C   UNL     1     -11.640  12.626  65.829  0.00  0.00    +0.063 A 
ATOM     10  N   UNL     1     -12.743  12.691  65.034  0.00  0.00    -0.248 NA
ATOM     11  C   UNL     1     -12.769  12.108  63.818  0.00  0.00    +0.098 A 
ATOM     12  C   UNL     1     -11.530  11.885  63.233  0.00  0.00    +0.021 A 
ATOM     13  C   UNL     1     -10.362  12.242  63.890  0.00  0.00    +0.003 A 
ATOM     14  C   UNL     1     -10.475  12.886  65.112  0.00  0.00    +0.015 A 
ENDBRANCH   1   9
BRANCH   1  15
ATOM     15  C   UNL     1     -10.407  14.426  66.775  0.00  0.00    +0.028 C 
BRANCH  15  16
ATOM     16  C   UNL     1     -10.706  15.884  67.011  0.00  0.00    +0.073 C 
BRANCH  16  18
ATOM     17  C   UNL     1      -9.264  16.548  66.179  0.00  0.00    +0.090 C 
ATOM     18  N   UNL     1      -9.704  16.702  66.335  0.00  0.00    -0.270 NA
ATOM     19  C   UNL     1     -10.177  18.077  66.437  0.00  0.00    +0.090 C 
ENDBRANCH  16  18
ENDBRANCH  15  16
ENDBRANCH   1  15
TORSDOF 5
ENDMDL
MODEL 6
REMARK VINA RESULT:      -5.5      3.132      5.422
REMARK  Name = 
REMARK  5 active torsions:
REMARK  status: ('A' for Active; 'I' for Inactive)
REMARK    1  A    between atoms: N_2  and  C_4
REMARK    2  A    between atoms: C_4  and  C_5
REMARK    3  A    between atoms: C_5  and  C_6
REMARK    4  A    between atoms: C_6  and  C_7
REMARK    5  A    between atoms: C_6  and  C_14
REMARK                            x       y       z     vdW  Elec       q    Type
REMARK                         _______ _______ _______ _____ _____    ______ ____
ROOT
ATOM      1  C   UNL     1     -11.734  14.317  66.571  0.00  0.00    +0.064 C 
ENDROOT
BRANCH   1   2
ATOM      2  C   UNL     1     -10.631  15.446  67.006  0.00  0.00    -0.017 A 
ATOM      3  C   UNL     1     -10.898  16.090  68.186  0.00  0.00    -0.003 A 
ATOM      4  C   UNL     1     -10.468  17.363  68.477  0.00  0.00    +0.011 A 
ATOM      5  C   UNL     1     -10.261  18.186  67.376  0.00  0.00    +0.058 A 
ATOM      6 CL   UNL     1      -9.701  19.813  67.728  0.00  0.00    -0.082 Cl
ATOM      7  C   UNL     1     -10.376  17.692  66.092  0.00  0.00    +0.011 A 
ATOM      8  C   UNL     1     -10.493  16.316  65.923  0.00  0.00    -0.003 A 
ENDBRANCH   1   2
BRANCH   1   9
ATOM      9  C   UNL     1     -10.986  13.106  67.383  0.00  0.00    +0.063 A 
ATOM     10  N   UNL     1     -11.745  11.999  67.157  0.00  0.00    -0.248 NA
ATOM     11  C   UNL     1     -11.299  10.764  67.464  0.00  0.00    +0.098 A 
ATOM     12  C   UNL     1      -9.920  10.628  67.544  0.00  0.00    +0.021 A 
ATOM     13  C   UNL     1      -9.087  11.716  67.327  0.00  0.00    +0.003 A 
ATOM     14  C   UNL     1      -9.671  12.919  66.963  0.00  0.00    +0.015 A 
ENDBRANCH   1   9
BRANCH   1  15
ATOM     15  C   UNL     1     -10.891  13.978  65.172  0.00  0.00    +0.028 C 
BRANCH  15  16
ATOM     16  C   UNL     1     -12.004  13.779  64.177  0.00  0.00    +0.073 C 
BRANCH  16  18
ATOM     17  C   UNL     1     -12.290  12.135  63.524  0.00  0.00    +0.090 C 
ATOM     18  N   UNL     1     -11.913  12.439  63.606  0.00  0.00    -0.270 NA
ATOM     19  C   UNL     1     -10.491  12.120  63.562  0.00  0.00    +0.090 C 
ENDBRANCH  16  18
ENDBRANCH  15  16
ENDBRANCH   1  15
TORSDOF 5
ENDMDL
MODEL 7
REMARK VINA RESULT:      -5.4      1.467      4.558
REMARK  Name = 
REMARK  5 active torsions:
REMARK  status: ('A' for Active; 'I' for Inactive)
REMARK    1  A    between atoms: N_2  and  C_4
REMARK    2  A    between atoms: C_4  and  C_5
REMARK    3  A    between atoms: C_5  and  C_6
REMARK    4  A    between atoms: C_6  and  C_7
REMARK    5  A    between atoms: C_6  and  C_14
REMARK                            x       y       z     vdW  Elec       q    Type
REMARK                         _______ _______ _______ _____ _____    ______ ____
ROOT
ATOM      1  C   UNL     1     -11.751  15.156  68.007  0.00  0.00    +0.064 C 
ENDROOT
BRANCH   1   2
ATOM      2  C   UNL     1     -11.419  14.759  69.559  0.00  0.00    -0.017 A 
ATOM      3  C   UNL     1     -12.335  13.932  70.154  0.00  0.00    -0.003 A 
ATOM      4  C   UNL     1     -12.571  13.898  71.507  0.00  0.00    +0.011 A 
ATOM      5  C   UNL     1     -12.297  15.079  72.188  0.00  0.00    +0.058 A 
ATOM      6 CL   UNL     1     -12.581  15.051  73.920  0.00  0.00    -0.082 Cl
ATOM      7  C   UNL     1     -11.720  16.152  71.537  0.00  0.00    +0.011 A 
ATOM      8  C   UNL     1     -11.228  15.956  70.251  0.00  0.00    -0.003 A 
ENDBRANCH   1   2
BRANCH   1   9
ATOM      9  C   UNL     1     -11.639  13.613  67.466  0.00  0.00    +0.063 A 
ATOM     10  N   UNL     1     -12.225  13.618  66.238  0.00  0.00    -0.248 NA
ATOM     11  C   UNL     1     -12.095  12.578  65.391  0.00  0.00    +0.098 A 
ATOM     12  C   UNL     1     -10.990  11.766  65.604  0.00  0.00    +0.021 A 
ATOM     13  C   UNL     1     -10.104  12.032  66.638  0.00  0.00    +0.003 A 
ATOM     14  C   UNL     1     -10.321  13.168  67.402  0.00  0.00    +0.015 A 
ENDBRANCH   1   9
BRANCH   1  15
ATOM     15  C   UNL     1     -10.138  15.444  67.694  0.00  0.00    +0.028 C 
BRANCH  15  16
ATOM     16  C   UNL     1     -10.204  16.662  66.810  0.00  0.00    +0.073 C 
BRANCH  16  18
ATOM     17  C   UNL     1      -9.121  17.755  67.728  0.00  0.00    +0.090 C 
ATOM     18  N   UNL     1      -9.540  17.780  67.472  0.00  0.00    -0.270 NA
ATOM     19  C   UNL     1     -10.480  18.893  67.413  0.00  0.00    +0.090 C 
ENDBRANCH  16  18
ENDBRANCH  15  16
ENDBRANCH   1  15
TORSDOF 5
ENDMDL
MODEL 8
REMARK VINA RESULT:      -5.4      2.521      5.358
REMARK  Name = 
REMARK  5 active torsions:
REMARK  status: ('A' for Active; 'I' for Inactive)
REMARK    1  A    between atoms: N_2  and  C_4
REMARK    2  A    between atoms: C_4  and  C_5
REMARK    3  A    between atoms: C_5  and  C_6
REMARK    4  A    between atoms: C_6  and  C_7
REMARK    5  A    between atoms: C_6  and  C_14
REMARK                            x       y       z     vdW  Elec       q    Type
REMARK                         _______ _______ _______ _____ _____    ______ ____
ROOT
ATOM      1  C   UNL     1     -10.279  15.146  67.853  0.00  0.00    +0.064 C 
ENDROOT
BRANCH   1   2
ATOM      2  C   UNL     1     -11.042  14.915  66.424  0.00  0.00    -0.017 A 
ATOM      3  C   UNL     1     -12.218  14.216  66.502  0.00  0.00    -0.003 A 
ATOM      4  C   UNL     1     -12.731  13.463  65.473  0.00  0.00    +0.011 A 
ATOM      5  C   UNL     1     -11.792  12.961  64.579  0.00  0.00    +0.058 A 
ATOM      6 CL   UNL     1     -12.431  12.006  63.251  0.00  0.00    -0.082 Cl
ATOM      7  C   UNL     1     -10.460  13.311  64.682  0.00  0.00    +0.011 A 
ATOM      8  C   UNL     1     -10.113  14.333  65.559  0.00  0.00    -0.003 A 
ENDBRANCH   1   2
BRANCH   1   9
ATOM      9  C   UNL     1     -11.611  14.814  68.750  0.00  0.00    +0.063 A 
ATOM     10  N   UNL     1     -11.337  13.640  69.380  0.00  0.00    -0.248 NA
ATOM     11  C   UNL     1     -12.103  13.189  70.393  0.00  0.00    +0.098 A 
ATOM     12  C   UNL     1     -12.840  14.155  71.063  0.00  0.00    +0.021 A 
ATOM     13  C   UNL     1     -12.775  15.487  70.682  0.00  0.00    +0.003 A 
ATOM     14  C   UNL     1     -11.904  15.828  69.660  0.00  0.00    +0.015 A 
ENDBRANCH   1   9
BRANCH   1  15
ATOM     15  C   UNL     1     -10.635  16.775  67.823  0.00  0.00    +0.028 C 
BRANCH  15  16
ATOM     16  C   UNL     1      -9.268  17.391  67.675  0.00  0.00    +0.073 C 
BRANCH  16  18
ATOM     17  C   UNL     1      -9.026  18.962  68.502  0.00  0.00    +0.090 C 
ATOM     18  N   UNL     1      -9.303  18.773  68.143  0.00  0.00    -0.270 NA
ATOM     19  C   UNL     1     -10.463  19.381  67.502  0.00  0.00    +0.090 C 
ENDBRANCH  16  18
ENDBRANCH  15  16
ENDBRANCH   1  15
TORSDOF 5
ENDMDL
MODEL 9
REMARK VINA RESULT:      -5.4      2.639      4.498
REMARK  Name = 
REMARK  5 active torsions:
REMARK  status: ('A' for Active; 'I' for Inactive)
REMARK    1  A    between atoms: N_2  and  C_4
REMARK    2  A    between atoms: C_4  and  C_5
REMARK    3  A    between atoms: C_5  and  C_6
REMARK    4  A    between atoms: C_6  and  C_7
REMARK    5  A    between atoms: C_6  and  C_14
REMARK                            x       y       z     vdW  Elec       q    Type
REMARK                         _______ _______ _______ _____ _____    ______ ____
ROOT
ATOM      1  C   UNL     1     -11.402  16.316  68.201  0.00  0.00    +0.064 C 
ENDROOT
BRANCH   1   2
ATOM      2  C   UNL     1     -10.910  15.092  67.232  0.00  0.00    -0.017 A 
ATOM      3  C   UNL     1     -10.521  15.472  65.974  0.00  0.00    -0.003 A 
ATOM      4  C   UNL     1     -10.588  14.653  64.873  0.00  0.00    +0.011 A 
ATOM      5  C   UNL     1     -11.563  13.664  64.927  0.00  0.00    +0.058 A 
ATOM      6 CL   UNL     1     -11.656  12.600  63.532  0.00  0.00    -0.082 Cl
ATOM      7  C   UNL     1     -12.314  13.472  66.070  0.00  0.00    +0.011 A 
ATOM      8  C   UNL     1     -11.933  14.142  67.228  0.00  0.00    -0.003 A 
ENDBRANCH   1   2
BRANCH   1   9
ATOM      9  C   UNL     1     -10.135  17.283  67.819  0.00  0.00    +0.063 A 
ATOM     10  N   UNL     1     -10.589  18.554  67.990  0.00  0.00    -0.248 NA
ATOM     11  C   UNL     1      -9.746  19.606  68.008  0.00  0.00    +0.098 A 
ATOM     12  C   UNL     1      -8.428  19.313  68.333  0.00  0.00    +0.021 A 
ATOM     13  C   UNL     1      -8.039  18.010  68.605  0.00  0.00    +0.003 A 
ATOM     14  C   UNL     1      -9.016  17.028  68.608  0.00  0.00    +0.015 A 
ENDBRANCH   1   9
BRANCH   1  15
ATOM     15  C   UNL     1     -10.587  15.664  69.502  0.00  0.00    +0.028 C 
BRANCH  15  16
ATOM     16  C   UNL     1     -11.535  15.945  70.638  0.00  0.00    +0.073 C 
BRANCH  16  18
ATOM     17  C   UNL     1     -12.044  14.260  70.969  0.00  0.00    +0.090 C 
ATOM     18  N   UNL     1     -12.224  14.715  71.014  0.00  0.00    -0.270 NA
ATOM     19  C   UNL     1     -13.597  15.102  71.313  0.00  0.00    +0.090 C 
ENDBRANCH  16  18
ENDBRANCH  15  16
ENDBRANCH   1  15
TORSDOF 5
ENDMDL
