MODEL 1
REMARK VINA RESULT:      -6.9      0.000      0.000
REMARK  Name = 
REMARK  7 active torsions:
REMARK  status: ('A' for Active; 'I' for Inactive)
REMARK    1  A    between atoms: N_2  and  C_3
REMARK    2  A    between atoms: C_3  and  C_5
REMARK    3  A    between atoms: C_10  and  O_11
REMARK    4  A    between atoms: O_11  and  C_12
REMARK    5  A    between atoms: C_18  and  O_19
REMARK    6  A    between atoms: O_19  and  C_20
REMARK    7  A    between atoms: C_26  and  N_27
REMARK                            x       y       z     vdW  Elec       q    Type
REMARK                         _______ _______ _______ _____ _____    ______ ____
ROOT
ATOM      1  C   UNL     1     -10.046  15.408  68.016  0.00  0.00    +0.168 C 
ATOM      2  C   UNL     1      -8.811  16.207  67.136  0.00  0.00    +0.209 C 
ATOM      3  O   UNL     1      -7.740  15.413  67.825  0.00  0.00    -0.218 OA
ATOM      4  C   UNL     1      -8.594  17.516  68.207  0.00  0.00    +0.168 C 
ATOM      5  C   UNL     1      -9.603  18.629  67.390  0.00  0.00    +0.123 C 
ATOM      6  N   UNL     1      -9.371  18.067  65.956  0.00  0.00    -0.130 NA
ATOM      7  C   UNL     1     -10.937  17.737  67.624  0.00  0.00    +0.043 C 
ATOM      8  C   UNL     1     -10.526  16.806  68.892  0.00  0.00    +0.123 C 
ATOM      9  N   UNL     1     -11.977  16.312  69.169  0.00  0.00    -0.130 NA
ENDROOT
BRANCH   1  10
ATOM     10  O   UNL     1     -10.936  15.533  66.825  0.00  0.00    -0.328 OA
BRANCH  10  13
ATOM     11  C   UNL     1     -11.312  12.056  66.534  0.00  0.00    +0.134 C 
ATOM     12  O   UNL     1     -10.452  13.282  66.799  0.00  0.00    -0.331 OA
ATOM     13  C   UNL     1     -11.671  14.206  66.814  0.00  0.00    +0.253 C 
ATOM     14  C   UNL     1     -11.960  14.148  65.108  0.00  0.00    +0.148 C 
ATOM     15  N   UNL     1     -11.313  15.502  64.702  0.00  0.00    -0.128 NA
ATOM     16  C   UNL     1     -10.595  13.405  64.626  0.00  0.00    +0.027 C 
ATOM     17  C   UNL     1     -10.856  11.975  64.963  0.00  0.00    +0.033 C 
BRANCH  11  18
ATOM     18  C   UNL     1     -10.136  10.968  67.163  0.00  0.00    +0.100 C 
ATOM     19  C   UNL     1     -10.822  11.076  68.641  0.00  0.00    +0.021 C 
BRANCH  18  21
ATOM     20  C   UNL     1      -9.787   8.753  66.584  0.00  0.00    +0.107 C 
ATOM     21  N   UNL     1     -10.890   9.631  66.876  0.00  0.00    -0.215 NA
ENDBRANCH  18  21
ENDBRANCH  11  18
ENDBRANCH  10  13
ENDBRANCH   1  10
BRANCH   4  22
ATOM     22  O   UNL     1      -7.344  18.002  67.553  0.00  0.00    -0.327 OA
BRANCH  22  23
ATOM     23  C   UNL     1      -6.572  18.552  68.764  0.00  0.00    +0.268 C 
ATOM     24  C   UNL     1      -5.044  18.056  68.144  0.00  0.00    +0.226 C 
ATOM     25  O   UNL     1      -4.239  18.657  69.258  0.00  0.00    -0.216 OA
ATOM     26  C   UNL     1      -4.612  19.255  67.024  0.00  0.00    +0.138 C 
ATOM     27  C   UNL     1      -4.595  20.606  67.927  0.00  0.00    +0.171 C 
ATOM     28  O   UNL     1      -4.849  21.555  66.906  0.00  0.00    -0.222 OA
ATOM     29  C   UNL     1      -3.146  20.813  68.260  0.00  0.00    +0.037 C 
ATOM     30  C   UNL     1      -5.587  20.651  68.869  0.00  0.00    +0.176 C 
ATOM     31  O   UNL     1      -6.594  19.995  68.333  0.00  0.00    -0.326 OA
BRANCH  26  32
ATOM     32  N   UNL     1      -6.057  19.425  66.492  0.00  0.00    -0.213 NA
ATOM     33  C   UNL     1      -6.076  19.348  65.074  0.00  0.00    +0.108 C 
ENDBRANCH  26  32
ENDBRANCH  22  23
ENDBRANCH   4  22
TORSDOF 7
ENDMDL
MODEL 2
REMARK VINA RESULT:      -6.9      1.656      1.979
REMARK  Name = 
REMARK  7 active torsions:
REMARK  status: ('A' for Active; 'I' for Inactive)
REMARK    1  A    between atoms: N_2  and  C_3
REMARK    2  A    between atoms: C_3  and  C_5
REMARK    3  A    between atoms: C_10  and  O_11
REMARK    4  A    between atoms: O_11  and  C_12
REMARK    5  A    between atoms: C_18  and  O_19
REMARK    6  A    between atoms: O_19  and  C_20
REMARK    7  A    between atoms: C_26  and  N_27
REMARK                            x       y       z     vdW  Elec       q    Type
REMARK                         _______ _______ _______ _____ _____    ______ ____
ROOT
ATOM      1  C   UNL     1      -9.901  13.851  67.798  0.00  0.00    +0.168 C 
ATOM      2  C   UNL     1      -9.182  15.199  67.023  0.00  0.00    +0.209 C 
ATOM      3  O   UNL     1      -7.803  14.653  67.243  0.00  0.00    -0.218 OA
ATOM      4  C   UNL     1      -9.056  16.199  68.398  0.00  0.00    +0.168 C 
ATOM      5  C   UNL     1     -10.495  17.090  68.147  0.00  0.00    +0.123 C 
ATOM      6  N   UNL     1     -10.490  17.008  66.592  0.00  0.00    -0.130 NA
ATOM      7  C   UNL     1     -11.443  15.783  68.305  0.00  0.00    +0.043 C 
ATOM      8  C   UNL     1     -10.497  14.753  69.133  0.00  0.00    +0.123 C 
ATOM      9  N   UNL     1     -11.649  13.762  69.475  0.00  0.00    -0.130 NA
ENDROOT
BRANCH   1  10
ATOM     10  O   UNL     1     -11.061  13.971  66.868  0.00  0.00    -0.328 OA
BRANCH  10  13
ATOM     11  C   UNL     1     -10.570  11.108  64.899  0.00  0.00    +0.134 C 
ATOM     12  O   UNL     1     -10.087  12.441  65.449  0.00  0.00    -0.331 OA
ATOM     13  C   UNL     1     -11.274  12.541  66.409  0.00  0.00    +0.253 C 
ATOM     14  C   UNL     1     -12.458  12.891  65.194  0.00  0.00    +0.148 C 
ATOM     15  N   UNL     1     -12.558  14.430  65.385  0.00  0.00    -0.128 NA
ATOM     16  C   UNL     1     -11.474  13.160  63.926  0.00  0.00    +0.027 C 
ATOM     17  C   UNL     1     -11.092  11.782  63.501  0.00  0.00    +0.033 C 
BRANCH  11  18
ATOM     18  C   UNL     1      -9.003  10.650  64.353  0.00  0.00    +0.100 C 
ATOM     19  C   UNL     1      -8.936   9.494  65.505  0.00  0.00    +0.021 C 
BRANCH  18  21
ATOM     20  C   UNL     1      -8.231   8.824  63.156  0.00  0.00    +0.107 C 
ATOM     21  N   UNL     1      -9.436   9.601  63.281  0.00  0.00    -0.215 NA
ENDBRANCH  18  21
ENDBRANCH  11  18
ENDBRANCH  10  13
ENDBRANCH   1  10
BRANCH   4  22
ATOM     22  O   UNL     1      -8.184  17.211  67.735  0.00  0.00    -0.327 OA
BRANCH  22  23
ATOM     23  C   UNL     1      -7.200  17.543  68.869  0.00  0.00    +0.268 C 
ATOM     24  C   UNL     1      -5.851  17.649  67.805  0.00  0.00    +0.226 C 
ATOM     25  O   UNL     1      -4.871  18.065  68.862  0.00  0.00    -0.216 OA
ATOM     26  C   UNL     1      -5.950  19.197  67.118  0.00  0.00    +0.138 C 
ATOM     27  C   UNL     1      -5.896  20.174  68.416  0.00  0.00    +0.171 C 
ATOM     28  O   UNL     1      -6.576  21.293  67.877  0.00  0.00    -0.222 OA
ATOM     29  C   UNL     1      -4.464  20.621  68.487  0.00  0.00    +0.037 C 
ATOM     30  C   UNL     1      -6.575  19.688  69.500  0.00  0.00    +0.176 C 
ATOM     31  O   UNL     1      -7.574  18.997  68.992  0.00  0.00    -0.326 OA
BRANCH  26  32
ATOM     32  N   UNL     1      -7.495  19.158  67.000  0.00  0.00    -0.213 NA
ATOM     33  C   UNL     1      -7.909  19.687  65.749  0.00  0.00    +0.108 C 
ENDBRANCH  26  32
ENDBRANCH  22  23
ENDBRANCH   4  22
TORSDOF 7
ENDMDL
MODEL 3
REMARK VINA RESULT:      -6.7      2.655      4.655
REMARK  Name = 
REMARK  7 active torsions:
REMARK  status: ('A' for Active; 'I' for Inactive)
REMARK    1  A    between atoms: N_2  and  C_3
REMARK    2  A    between atoms: C_3  and  C_5
REMARK    3  A    between atoms: C_10  and  O_11
REMARK    4  A    between atoms: O_11  and  C_12
REMARK    5  A    between atoms: C_18  and  O_19
REMARK    6  A    between atoms: O_19  and  C_20
REMARK    7  A    between atoms: C_26  and  N_27
REMARK                            x       y       z     vdW  Elec       q    Type
REMARK                         _______ _______ _______ _____ _____    ______ ____
ROOT
ATOM      1  C   UNL     1     -11.692  12.601  67.571  0.00  0.00    +0.168 C 
ATOM      2  C   UNL     1     -10.406  13.624  68.058  0.00  0.00    +0.209 C 
ATOM      3  O   UNL     1     -11.249  14.259  69.124  0.00  0.00    -0.218 OA
ATOM      4  C   UNL     1     -10.724  14.904  66.977  0.00  0.00    +0.168 C 
ATOM      5  C   UNL     1      -9.614  14.438  65.762  0.00  0.00    +0.123 C 
ATOM      6  N   UNL     1      -8.580  13.761  66.710  0.00  0.00    -0.130 NA
ATOM      7  C   UNL     1     -10.387  13.045  65.457  0.00  0.00    +0.043 C 
ATOM      8  C   UNL     1     -11.882  13.333  66.028  0.00  0.00    +0.123 C 
ATOM      9  N   UNL     1     -12.523  12.084  65.353  0.00  0.00    -0.130 NA
ENDROOT
BRANCH   1  10
ATOM     10  O   UNL     1     -10.691  11.548  67.236  0.00  0.00    -0.328 OA
BRANCH  10  13
ATOM     11  C   UNL     1     -10.881   8.958  69.596  0.00  0.00    +0.134 C 
ATOM     12  O   UNL     1     -10.396  10.335  69.171  0.00  0.00    -0.331 OA
ATOM     13  C   UNL     1     -11.261  10.315  67.910  0.00  0.00    +0.253 C 
ATOM     14  C   UNL     1     -10.303   9.154  67.054  0.00  0.00    +0.148 C 
ATOM     15  N   UNL     1      -9.510  10.122  66.133  0.00  0.00    -0.128 NA
ATOM     16  C   UNL     1      -9.005   9.098  68.034  0.00  0.00    +0.027 C 
ATOM     17  C   UNL     1      -9.474   8.241  69.161  0.00  0.00    +0.033 C 
BRANCH  11  18
ATOM     18  C   UNL     1     -10.494   9.220  71.253  0.00  0.00    +0.100 C 
ATOM     19  C   UNL     1     -12.042   9.646  71.550  0.00  0.00    +0.021 C 
BRANCH  18  21
ATOM     20  C   UNL     1     -10.011   7.788  73.007  0.00  0.00    +0.107 C 
ATOM     21  N   UNL     1     -10.758   7.773  71.777  0.00  0.00    -0.215 NA
ENDBRANCH  18  21
ENDBRANCH  11  18
ENDBRANCH  10  13
ENDBRANCH   1  10
BRANCH   4  22
ATOM     22  O   UNL     1      -9.779  15.854  67.631  0.00  0.00    -0.327 OA
BRANCH  22  23
ATOM     23  C   UNL     1     -10.604  17.152  67.614  0.00  0.00    +0.268 C 
ATOM     24  C   UNL     1      -9.576  17.939  68.749  0.00  0.00    +0.226 C 
ATOM     25  O   UNL     1     -10.294  19.256  68.697  0.00  0.00    -0.216 OA
ATOM     26  C   UNL     1      -8.254  18.490  67.840  0.00  0.00    +0.138 C 
ATOM     27  C   UNL     1      -8.950  19.458  66.736  0.00  0.00    +0.171 C 
ATOM     28  O   UNL     1      -7.971  19.366  65.716  0.00  0.00    -0.222 OA
ATOM     29  C   UNL     1      -8.767  20.842  67.287  0.00  0.00    +0.037 C 
ATOM     30  C   UNL     1     -10.153  18.995  66.277  0.00  0.00    +0.176 C 
ATOM     31  O   UNL     1     -10.050  17.683  66.319  0.00  0.00    -0.326 OA
BRANCH  26  32
ATOM     32  N   UNL     1      -8.208  17.223  66.948  0.00  0.00    -0.213 NA
ATOM     33  C   UNL     1      -6.869  16.777  66.789  0.00  0.00    +0.108 C 
ENDBRANCH  26  32
ENDBRANCH  22  23
ENDBRANCH   4  22
TORSDOF 7
ENDMDL
MODEL 4
REMARK VINA RESULT:      -6.6      2.169      8.519
REMARK  Name = 
REMARK  7 active torsions:
REMARK  status: ('A' for Active; 'I' for Inactive)
REMARK    1  A    between atoms: N_2  and  C_3
REMARK    2  A    between atoms: C_3  and  C_5
REMARK    3  A    between atoms: C_10  and  O_11
REMARK    4  A    between atoms: O_11  and  C_12
REMARK    5  A    between atoms: C_18  and  O_19
REMARK    6  A    between atoms: O_19  and  C_20
REMARK    7  A    between atoms: C_26  and  N_27
REMARK                            x       y       z     vdW  Elec       q    Type
REMARK                         _______ _______ _______ _____ _____    ______ ____
ROOT
ATOM      1  C   UNL     1      -8.291  19.435  66.688  0.00  0.00    +0.168 C 
ATOM      2  C   UNL     1      -8.253  17.749  66.996  0.00  0.00    +0.209 C 
ATOM      3  O   UNL     1      -8.096  17.437  65.537  0.00  0.00    -0.218 OA
ATOM      4  C   UNL     1      -9.934  17.477  66.922  0.00  0.00    +0.168 C 
ATOM      5  C   UNL     1     -10.239  17.563  68.603  0.00  0.00    +0.123 C 
ATOM      6  N   UNL     1      -8.852  17.028  69.067  0.00  0.00    -0.130 NA
ATOM      7  C   UNL     1      -9.777  19.115  68.703  0.00  0.00    +0.043 C 
ATOM      8  C   UNL     1      -9.929  19.632  67.169  0.00  0.00    +0.123 C 
ATOM      9  N   UNL     1      -9.794  21.143  67.526  0.00  0.00    -0.130 NA
ENDROOT
BRANCH   1  10
ATOM     10  O   UNL     1      -7.610  19.661  67.995  0.00  0.00    -0.328 OA
BRANCH  10  13
ATOM     11  C   UNL     1      -4.490  20.794  66.856  0.00  0.00    +0.134 C 
ATOM     12  O   UNL     1      -5.580  19.735  66.910  0.00  0.00    -0.331 OA
ATOM     13  C   UNL     1      -6.538  20.675  67.645  0.00  0.00    +0.253 C 
ATOM     14  C   UNL     1      -5.706  20.626  69.163  0.00  0.00    +0.148 C 
ATOM     15  N   UNL     1      -6.614  19.606  69.906  0.00  0.00    -0.128 NA
ATOM     16  C   UNL     1      -4.666  19.411  68.864  0.00  0.00    +0.027 C 
ATOM     17  C   UNL     1      -3.614  20.068  68.034  0.00  0.00    +0.033 C 
BRANCH  11  18
ATOM     18  C   UNL     1      -3.703  20.061  65.511  0.00  0.00    +0.100 C 
ATOM     19  C   UNL     1      -4.570  20.996  64.491  0.00  0.00    +0.021 C 
BRANCH  18  21
ATOM     20  C   UNL     1      -2.075  20.815  64.047  0.00  0.00    +0.107 C 
ATOM     21  N   UNL     1      -2.482  21.029  65.411  0.00  0.00    -0.215 NA
ENDBRANCH  18  21
ENDBRANCH  11  18
ENDBRANCH  10  13
ENDBRANCH   1  10
BRANCH   4  22
ATOM     22  O   UNL     1      -9.816  15.990  66.908  0.00  0.00    -0.327 OA
BRANCH  22  23
ATOM     23  C   UNL     1     -10.899  15.616  65.882  0.00  0.00    +0.268 C 
ATOM     24  C   UNL     1      -9.921  14.409  65.139  0.00  0.00    +0.226 C 
ATOM     25  O   UNL     1     -10.976  13.946  64.178  0.00  0.00    -0.216 OA
ATOM     26  C   UNL     1     -10.065  13.046  66.139  0.00  0.00    +0.138 C 
ATOM     27  C   UNL     1     -11.664  12.756  66.130  0.00  0.00    +0.171 C 
ATOM     28  O   UNL     1     -11.773  12.088  67.374  0.00  0.00    -0.222 OA
ATOM     29  C   UNL     1     -11.837  11.662  65.115  0.00  0.00    +0.037 C 
ATOM     30  C   UNL     1     -12.430  13.890  66.135  0.00  0.00    +0.176 C 
ATOM     31  O   UNL     1     -11.726  14.771  66.814  0.00  0.00    -0.326 OA
BRANCH  26  32
ATOM     32  N   UNL     1     -10.053  13.878  67.447  0.00  0.00    -0.213 NA
ATOM     33  C   UNL     1      -9.052  13.394  68.332  0.00  0.00    +0.108 C 
ENDBRANCH  26  32
ENDBRANCH  22  23
ENDBRANCH   4  22
TORSDOF 7
ENDMDL
MODEL 5
REMARK VINA RESULT:      -6.3      2.148      8.358
REMARK  Name = 
REMARK  7 active torsions:
REMARK  status: ('A' for Active; 'I' for Inactive)
REMARK    1  A    between atoms: N_2  and  C_3
REMARK    2  A    between atoms: C_3  and  C_5
REMARK    3  A    between atoms: C_10  and  O_11
REMARK    4  A    between atoms: O_11  and  C_12
REMARK    5  A    between atoms: C_18  and  O_19
REMARK    6  A    between atoms: O_19  and  C_20
REMARK    7  A    between atoms: C_26  and  N_27
REMARK                            x       y       z     vdW  Elec       q    Type
REMARK                         _______ _______ _______ _____ _____    ______ ____
ROOT
ATOM      1  C   UNL     1      -9.044  18.500  66.591  0.00  0.00    +0.168 C 
ATOM      2  C   UNL     1      -8.481  16.925  66.965  0.00  0.00    +0.209 C 
ATOM      3  O   UNL     1      -8.562  16.501  65.528  0.00  0.00    -0.218 OA
ATOM      4  C   UNL     1      -9.999  16.226  67.305  0.00  0.00    +0.168 C 
ATOM      5  C   UNL     1      -9.946  16.420  69.004  0.00  0.00    +0.123 C 
ATOM      6  N   UNL     1      -8.400  16.310  69.152  0.00  0.00    -0.130 NA
ATOM      7  C   UNL     1      -9.916  18.039  68.914  0.00  0.00    +0.043 C 
ATOM      8  C   UNL     1     -10.530  18.326  67.436  0.00  0.00    +0.123 C 
ATOM      9  N   UNL     1     -10.740  19.851  67.674  0.00  0.00    -0.130 NA
ENDROOT
BRANCH   1  10
ATOM     10  O   UNL     1      -8.186  19.036  67.686  0.00  0.00    -0.328 OA
BRANCH  10  13
ATOM     11  C   UNL     1      -5.778  20.779  65.820  0.00  0.00    +0.134 C 
ATOM     12  O   UNL     1      -6.498  19.490  66.187  0.00  0.00    -0.331 OA
ATOM     13  C   UNL     1      -7.526  20.238  67.038  0.00  0.00    +0.253 C 
ATOM     14  C   UNL     1      -6.446  20.605  68.341  0.00  0.00    +0.148 C 
ATOM     15  N   UNL     1      -6.875  19.491  69.337  0.00  0.00    -0.128 NA
ATOM     16  C   UNL     1      -5.182  19.672  67.917  0.00  0.00    +0.027 C 
ATOM     17  C   UNL     1      -4.530  20.464  66.834  0.00  0.00    +0.033 C 
BRANCH  11  18
ATOM     18  C   UNL     1      -5.082  20.105  64.397  0.00  0.00    +0.100 C 
ATOM     19  C   UNL     1      -6.227  20.835  63.489  0.00  0.00    +0.021 C 
BRANCH  18  21
ATOM     20  C   UNL     1      -3.109  20.542  63.267  0.00  0.00    +0.107 C 
ATOM     21  N   UNL     1      -4.062  21.245  64.083  0.00  0.00    -0.215 NA
ENDBRANCH  18  21
ENDBRANCH  11  18
ENDBRANCH  10  13
ENDBRANCH   1  10
BRANCH   4  22
ATOM     22  O   UNL     1      -9.484  14.827  67.338  0.00  0.00    -0.327 OA
BRANCH  22  23
ATOM     23  C   UNL     1     -10.752  14.037  66.970  0.00  0.00    +0.268 C 
ATOM     24  C   UNL     1      -9.891  12.919  65.984  0.00  0.00    +0.226 C 
ATOM     25  O   UNL     1     -11.083  12.063  65.670  0.00  0.00    -0.216 OA
ATOM     26  C   UNL     1      -9.221  11.798  67.067  0.00  0.00    +0.138 C 
ATOM     27  C   UNL     1     -10.529  11.200  67.825  0.00  0.00    +0.171 C 
ATOM     28  O   UNL     1      -9.916  10.803  69.039  0.00  0.00    -0.222 OA
ATOM     29  C   UNL     1     -10.808   9.905  67.120  0.00  0.00    +0.037 C 
ATOM     30  C   UNL     1     -11.498  12.135  68.071  0.00  0.00    +0.176 C 
ATOM     31  O   UNL     1     -10.843  13.261  68.258  0.00  0.00    -0.326 OA
BRANCH  26  32
ATOM     32  N   UNL     1      -8.885  12.873  68.132  0.00  0.00    -0.213 NA
ATOM     33  C   UNL     1      -7.520  12.783  68.513  0.00  0.00    +0.108 C 
ENDBRANCH  26  32
ENDBRANCH  22  23
ENDBRANCH   4  22
TORSDOF 7
ENDMDL
MODEL 6
REMARK VINA RESULT:      -6.3      2.005      8.530
REMARK  Name = 
REMARK  7 active torsions:
REMARK  status: ('A' for Active; 'I' for Inactive)
REMARK    1  A    between atoms: N_2  and  C_3
REMARK    2  A    between atoms: C_3  and  C_5
REMARK    3  A    between atoms: C_10  and  O_11
REMARK    4  A    between atoms: O_11  and  C_12
REMARK    5  A    between atoms: C_18  and  O_19
REMARK    6  A    between atoms: O_19  and  C_20
REMARK    7  A    between atoms: C_26  and  N_27
REMARK                            x       y       z     vdW  Elec       q    Type
REMARK                         _______ _______ _______ _____ _____    ______ ____
ROOT
ATOM      1  C   UNL     1      -9.588  15.538  65.780  0.00  0.00    +0.168 C 
ATOM      2  C   UNL     1      -9.573  14.370  67.034  0.00  0.00    +0.209 C 
ATOM      3  O   UNL     1      -8.175  13.948  66.690  0.00  0.00    -0.218 OA
ATOM      4  C   UNL     1     -10.233  13.079  66.137  0.00  0.00    +0.168 C 
ATOM      5  C   UNL     1     -11.857  13.282  66.635  0.00  0.00    +0.123 C 
ATOM      6  N   UNL     1     -11.544  13.861  68.046  0.00  0.00    -0.130 NA
ATOM      7  C   UNL     1     -11.980  14.751  65.957  0.00  0.00    +0.043 C 
ATOM      8  C   UNL     1     -10.790  14.735  64.850  0.00  0.00    +0.123 C 
ATOM      9  N   UNL     1     -11.280  16.014  64.110  0.00  0.00    -0.130 NA
ENDROOT
BRANCH   1  10
ATOM     10  O   UNL     1     -10.457  16.400  66.633  0.00  0.00    -0.328 OA
BRANCH  10  13
ATOM     11  C   UNL     1      -8.076  18.971  66.829  0.00  0.00    +0.134 C 
ATOM     12  O   UNL     1      -8.444  17.495  66.858  0.00  0.00    -0.331 OA
ATOM     13  C   UNL     1      -9.878  17.784  66.410  0.00  0.00    +0.253 C 
ATOM     14  C   UNL     1     -10.401  18.468  67.913  0.00  0.00    +0.148 C 
ATOM     15  N   UNL     1     -11.149  17.236  68.495  0.00  0.00    -0.128 NA
ATOM     16  C   UNL     1      -9.127  18.076  68.847  0.00  0.00    +0.027 C 
ATOM     17  C   UNL     1      -8.106  19.093  68.463  0.00  0.00    +0.033 C 
BRANCH  11  18
ATOM     18  C   UNL     1      -6.393  18.653  66.661  0.00  0.00    +0.100 C 
ATOM     19  C   UNL     1      -6.476  19.035  65.076  0.00  0.00    +0.021 C 
BRANCH  18  21
ATOM     20  C   UNL     1      -4.490  19.783  67.342  0.00  0.00    +0.107 C 
ATOM     21  N   UNL     1      -5.859  20.078  67.010  0.00  0.00    -0.215 NA
ENDBRANCH  18  21
ENDBRANCH  11  18
ENDBRANCH  10  13
ENDBRANCH   1  10
BRANCH   4  22
ATOM     22  O   UNL     1      -9.931  12.045  67.170  0.00  0.00    -0.327 OA
BRANCH  22  23
ATOM     23  C   UNL     1      -9.268  10.955  66.312  0.00  0.00    +0.268 C 
ATOM     24  C   UNL     1      -8.175  10.495  67.561  0.00  0.00    +0.226 C 
ATOM     25  O   UNL     1      -7.559   9.360  66.797  0.00  0.00    -0.216 OA
ATOM     26  C   UNL     1      -9.072   9.479  68.581  0.00  0.00    +0.138 C 
ATOM     27  C   UNL     1      -9.539   8.284  67.584  0.00  0.00    +0.171 C 
ATOM     28  O   UNL     1     -10.705   7.867  68.271  0.00  0.00    -0.222 OA
ATOM     29  C   UNL     1      -8.554   7.179  67.841  0.00  0.00    +0.037 C 
ATOM     30  C   UNL     1      -9.861   8.711  66.325  0.00  0.00    +0.176 C 
ATOM     31  O   UNL     1     -10.349   9.922  66.492  0.00  0.00    -0.326 OA
BRANCH  26  32
ATOM     32  N   UNL     1     -10.367  10.321  68.452  0.00  0.00    -0.213 NA
ATOM     33  C   UNL     1     -10.951  10.530  69.729  0.00  0.00    +0.108 C 
ENDBRANCH  26  32
ENDBRANCH  22  23
ENDBRANCH   4  22
TORSDOF 7
ENDMDL
MODEL 7
REMARK VINA RESULT:      -6.3      2.691      8.864
REMARK  Name = 
REMARK  7 active torsions:
REMARK  status: ('A' for Active; 'I' for Inactive)
REMARK    1  A    between atoms: N_2  and  C_3
REMARK    2  A    between atoms: C_3  and  C_5
REMARK    3  A    between atoms: C_10  and  O_11
REMARK    4  A    between atoms: O_11  and  C_12
REMARK    5  A    between atoms: C_18  and  O_19
REMARK    6  A    between atoms: O_19  and  C_20
REMARK    7  A    between atoms: C_26  and  N_27
REMARK                            x       y       z     vdW  Elec       q    Type
REMARK                         _______ _______ _______ _____ _____    ______ ____
ROOT
ATOM      1  C   UNL     1      -9.290  14.370  66.713  0.00  0.00    +0.168 C 
ATOM      2  C   UNL     1      -9.548  13.544  68.192  0.00  0.00    +0.209 C 
ATOM      3  O   UNL     1      -8.115  13.103  68.252  0.00  0.00    -0.218 OA
ATOM      4  C   UNL     1     -10.028  12.050  67.525  0.00  0.00    +0.168 C 
ATOM      5  C   UNL     1     -11.716  12.307  67.618  0.00  0.00    +0.123 C 
ATOM      6  N   UNL     1     -11.692  13.224  68.877  0.00  0.00    -0.130 NA
ATOM      7  C   UNL     1     -11.677  13.562  66.590  0.00  0.00    +0.043 C 
ATOM      8  C   UNL     1     -10.285  13.321  65.785  0.00  0.00    +0.123 C 
ATOM      9  N   UNL     1     -10.596  14.363  64.670  0.00  0.00    -0.130 NA
ENDROOT
BRANCH   1  10
ATOM     10  O   UNL     1     -10.303  15.381  67.133  0.00  0.00    -0.328 OA
BRANCH  10  13
ATOM     11  C   UNL     1      -8.106  18.116  67.032  0.00  0.00    +0.134 C 
ATOM     12  O   UNL     1      -8.437  16.693  67.453  0.00  0.00    -0.331 OA
ATOM     13  C   UNL     1      -9.717  16.680  66.615  0.00  0.00    +0.253 C 
ATOM     14  C   UNL     1     -10.618  17.738  67.648  0.00  0.00    +0.148 C 
ATOM     15  N   UNL     1     -11.462  16.677  68.408  0.00  0.00    -0.128 NA
ATOM     16  C   UNL     1      -9.614  17.786  68.928  0.00  0.00    +0.027 C 
ATOM     17  C   UNL     1      -8.551  18.734  68.483  0.00  0.00    +0.033 C 
BRANCH  11  18
ATOM     18  C   UNL     1      -6.429  17.935  67.373  0.00  0.00    +0.100 C 
ATOM     19  C   UNL     1      -6.118  17.783  65.777  0.00  0.00    +0.021 C 
BRANCH  18  21
ATOM     20  C   UNL     1      -4.802  19.419  68.091  0.00  0.00    +0.107 C 
ATOM     21  N   UNL     1      -6.028  19.445  67.339  0.00  0.00    -0.215 NA
ENDBRANCH  18  21
ENDBRANCH  11  18
ENDBRANCH  10  13
ENDBRANCH   1  10
BRANCH   4  22
ATOM     22  O   UNL     1      -9.958  11.311  68.819  0.00  0.00    -0.327 OA
BRANCH  22  23
ATOM     23  C   UNL     1      -9.219  10.032  68.390  0.00  0.00    +0.268 C 
ATOM     24  C   UNL     1      -8.585   9.749  69.966  0.00  0.00    +0.226 C 
ATOM     25  O   UNL     1      -7.922   8.449  69.618  0.00  0.00    -0.216 OA
ATOM     26  C   UNL     1      -9.849   9.013  70.825  0.00  0.00    +0.138 C 
ATOM     27  C   UNL     1     -10.159   7.682  69.945  0.00  0.00    +0.171 C 
ATOM     28  O   UNL     1     -11.513   7.487  70.312  0.00  0.00    -0.222 OA
ATOM     29  C   UNL     1      -9.428   6.584  70.663  0.00  0.00    +0.037 C 
ATOM     30  C   UNL     1     -10.060   7.879  68.595  0.00  0.00    +0.176 C 
ATOM     31  O   UNL     1     -10.424   9.130  68.407  0.00  0.00    -0.326 OA
BRANCH  26  32
ATOM     32  N   UNL     1     -10.943   9.901  70.179  0.00  0.00    -0.213 NA
ATOM     33  C   UNL     1     -11.902  10.292  71.151  0.00  0.00    +0.108 C 
ENDBRANCH  26  32
ENDBRANCH  22  23
ENDBRANCH   4  22
TORSDOF 7
ENDMDL
MODEL 8
REMARK VINA RESULT:      -6.1      3.448      9.381
REMARK  Name = 
REMARK  7 active torsions:
REMARK  status: ('A' for Active; 'I' for Inactive)
REMARK    1  A    between atoms: N_2  and  C_3
REMARK    2  A    between atoms: C_3  and  C_5
REMARK    3  A    between atoms: C_10  and  O_11
REMARK    4  A    between atoms: O_11  and  C_12
REMARK    5  A    between atoms: C_18  and  O_19
REMARK    6  A    between atoms: O_19  and  C_20
REMARK    7  A    between atoms: C_26  and  N_27
REMARK                            x       y       z     vdW  Elec       q    Type
REMARK                         _______ _______ _______ _____ _____    ______ ____
ROOT
ATOM      1  C   UNL     1      -8.946  12.499  66.798  0.00  0.00    +0.168 C 
ATOM      2  C   UNL     1      -9.455  12.163  68.399  0.00  0.00    +0.209 C 
ATOM      3  O   UNL     1      -8.111  11.607  68.763  0.00  0.00    -0.218 OA
ATOM      4  C   UNL     1     -10.074  10.601  68.108  0.00  0.00    +0.168 C 
ATOM      5  C   UNL     1     -11.711  11.054  67.907  0.00  0.00    +0.123 C 
ATOM      6  N   UNL     1     -11.678  12.284  68.862  0.00  0.00    -0.130 NA
ATOM      7  C   UNL     1     -11.401  11.950  66.591  0.00  0.00    +0.043 C 
ATOM      8  C   UNL     1      -9.986  11.341  66.070  0.00  0.00    +0.123 C 
ATOM      9  N   UNL     1     -10.042  12.048  64.683  0.00  0.00    -0.130 NA
ENDROOT
BRANCH   1  10
ATOM     10  O   UNL     1      -9.844  13.690  66.792  0.00  0.00    -0.328 OA
BRANCH  10  13
ATOM     11  C   UNL     1      -8.026  16.644  67.328  0.00  0.00    +0.134 C 
ATOM     12  O   UNL     1      -8.760  15.422  67.856  0.00  0.00    -0.331 OA
ATOM     13  C   UNL     1      -8.895  14.824  66.454  0.00  0.00    +0.253 C 
ATOM     14  C   UNL     1     -10.098  15.939  65.900  0.00  0.00    +0.148 C 
ATOM     15  N   UNL     1     -11.359  15.046  66.075  0.00  0.00    -0.128 NA
ATOM     16  C   UNL     1     -10.471  16.660  67.310  0.00  0.00    +0.027 C 
ATOM     17  C   UNL     1      -9.338  17.610  67.510  0.00  0.00    +0.033 C 
BRANCH  11  18
ATOM     18  C   UNL     1      -7.289  16.984  68.846  0.00  0.00    +0.100 C 
ATOM     19  C   UNL     1      -5.916  16.256  68.346  0.00  0.00    +0.021 C 
BRANCH  18  21
ATOM     20  C   UNL     1      -5.922  18.657  69.681  0.00  0.00    +0.107 C 
ATOM     21  N   UNL     1      -6.706  18.391  68.503  0.00  0.00    -0.215 NA
ENDBRANCH  18  21
ENDBRANCH  11  18
ENDBRANCH  10  13
ENDBRANCH   1  10
BRANCH   4  22
ATOM     22  O   UNL     1     -10.230  10.260  69.551  0.00  0.00    -0.327 OA
BRANCH  22  23
ATOM     23  C   UNL     1      -9.668   8.829  69.580  0.00  0.00    +0.268 C 
ATOM     24  C   UNL     1      -9.391   8.864  71.279  0.00  0.00    +0.226 C 
ATOM     25  O   UNL     1      -8.921   7.442  71.374  0.00  0.00    -0.216 OA
ATOM     26  C   UNL     1     -10.901   8.538  71.980  0.00  0.00    +0.138 C 
ATOM     27  C   UNL     1     -11.281   7.083  71.363  0.00  0.00    +0.171 C 
ATOM     28  O   UNL     1     -12.692   7.166  71.459  0.00  0.00    -0.222 OA
ATOM     29  C   UNL     1     -10.902   6.111  72.442  0.00  0.00    +0.037 C 
ATOM     30  C   UNL     1     -10.906   6.925  70.056  0.00  0.00    +0.176 C 
ATOM     31  O   UNL     1     -10.999   8.127  69.529  0.00  0.00    -0.326 OA
BRANCH  26  32
ATOM     32  N   UNL     1     -11.682   9.374  70.935  0.00  0.00    -0.213 NA
ATOM     33  C   UNL     1     -12.659  10.181  71.576  0.00  0.00    +0.108 C 
ENDBRANCH  26  32
ENDBRANCH  22  23
ENDBRANCH   4  22
TORSDOF 7
ENDMDL
MODEL 9
REMARK VINA RESULT:      -6.1      2.913      5.507
REMARK  Name = 
REMARK  7 active torsions:
REMARK  status: ('A' for Active; 'I' for Inactive)
REMARK    1  A    between atoms: N_2  and  C_3
REMARK    2  A    between atoms: C_3  and  C_5
REMARK    3  A    between atoms: C_10  and  O_11
REMARK    4  A    between atoms: O_11  and  C_12
REMARK    5  A    between atoms: C_18  and  O_19
REMARK    6  A    between atoms: O_19  and  C_20
REMARK    7  A    between atoms: C_26  and  N_27
REMARK                            x       y       z     vdW  Elec       q    Type
REMARK                         _______ _______ _______ _____ _____    ______ ____
ROOT
ATOM      1  C   UNL     1     -10.637  11.619  67.625  0.00  0.00    +0.168 C 
ATOM      2  C   UNL     1     -10.027  12.961  68.499  0.00  0.00    +0.209 C 
ATOM      3  O   UNL     1     -11.398  13.556  68.638  0.00  0.00    -0.218 OA
ATOM      4  C   UNL     1      -9.682  13.956  67.158  0.00  0.00    +0.168 C 
ATOM      5  C   UNL     1      -8.023  13.561  67.021  0.00  0.00    +0.123 C 
ATOM      6  N   UNL     1      -7.777  13.282  68.534  0.00  0.00    -0.130 NA
ATOM      7  C   UNL     1      -8.325  12.002  66.688  0.00  0.00    +0.043 C 
ATOM      8  C   UNL     1      -9.859  12.041  66.152  0.00  0.00    +0.123 C 
ATOM      9  N   UNL     1      -9.836  10.593  65.580  0.00  0.00    -0.130 NA
ENDROOT
BRANCH   1  10
ATOM     10  O   UNL     1      -9.576  10.772  68.242  0.00  0.00    -0.328 OA
BRANCH  10  13
ATOM     11  C   UNL     1     -11.187   8.766  70.630  0.00  0.00    +0.134 C 
ATOM     12  O   UNL     1     -10.653  10.113  70.168  0.00  0.00    -0.331 OA
ATOM     13  C   UNL     1     -10.359   9.582  68.765  0.00  0.00    +0.253 C 
ATOM     14  C   UNL     1      -8.991   8.622  69.220  0.00  0.00    +0.148 C 
ATOM     15  N   UNL     1      -7.856   9.584  68.769  0.00  0.00    -0.128 NA
ATOM     16  C   UNL     1      -8.777   9.160  70.741  0.00  0.00    +0.027 C 
ATOM     17  C   UNL     1      -9.839   8.440  71.502  0.00  0.00    +0.033 C 
BRANCH  11  18
ATOM     18  C   UNL     1     -12.115   9.456  71.905  0.00  0.00    +0.100 C 
ATOM     19  C   UNL     1     -13.280   9.869  70.838  0.00  0.00    +0.021 C 
BRANCH  18  21
ATOM     20  C   UNL     1     -14.258   8.675  72.305  0.00  0.00    +0.107 C 
ATOM     21  N   UNL     1     -12.908   8.177  72.324  0.00  0.00    -0.215 NA
ENDBRANCH  18  21
ENDBRANCH  11  18
ENDBRANCH  10  13
ENDBRANCH   1  10
BRANCH   4  22
ATOM     22  O   UNL     1      -9.435  15.180  67.974  0.00  0.00    -0.327 OA
BRANCH  22  23
ATOM     23  C   UNL     1     -10.207  16.236  67.164  0.00  0.00    +0.268 C 
ATOM     24  C   UNL     1     -10.380  17.291  68.514  0.00  0.00    +0.226 C 
ATOM     25  O   UNL     1     -11.055  18.389  67.746  0.00  0.00    -0.216 OA
ATOM     26  C   UNL     1      -8.901  18.114  68.624  0.00  0.00    +0.138 C 
ATOM     27  C   UNL     1      -8.782  18.843  67.176  0.00  0.00    +0.171 C 
ATOM     28  O   UNL     1      -7.372  18.956  67.103  0.00  0.00    -0.222 OA
ATOM     29  C   UNL     1      -9.245  20.249  67.428  0.00  0.00    +0.037 C 
ATOM     30  C   UNL     1      -9.249  18.084  66.137  0.00  0.00    +0.176 C 
ATOM     31  O   UNL     1      -9.003  16.839  66.490  0.00  0.00    -0.326 OA
BRANCH  26  32
ATOM     32  N   UNL     1      -8.061  16.865  68.254  0.00  0.00    -0.213 NA
ATOM     33  C   UNL     1      -6.961  16.727  69.142  0.00  0.00    +0.108 C 
ENDBRANCH  26  32
ENDBRANCH  22  23
ENDBRANCH   4  22
TORSDOF 7
ENDMDL
