MODEL 1
REMARK VINA RESULT:      -8.5      0.000      0.000
REMARK  Name = 
REMARK  7 active torsions:
REMARK  status: ('A' for Active; 'I' for Inactive)
REMARK    1  A    between atoms: C_2  and  C_3
REMARK    2  A    between atoms: C_3  and  C_4
REMARK    3  A    between atoms: C_9  and  C_10
REMARK    4  A    between atoms: N_23  and  C_24
REMARK    5  A    between atoms: C_24  and  C_25
REMARK    6  A    between atoms: C_28  and  C_29
REMARK    7  A    between atoms: C_34  and  C_35
REMARK                            x       y       z     vdW  Elec       q    Type
REMARK                         _______ _______ _______ _____ _____    ______ ____
ROOT
ATOM      1  C   UNL     1      -9.389  11.066  64.381  0.00  0.00    +0.121 A 
ATOM      2  N   UNL     1      -8.930  11.420  65.606  0.00  0.00    -0.311 N 
ATOM      3  C   UNL     1      -9.768  12.378  66.062  0.00  0.00    +0.079 A 
ATOM      4  C   UNL     1     -10.056  12.892  67.320  0.00  0.00    +0.022 A 
ATOM      5  C   UNL     1     -10.899  13.989  67.418  0.00  0.00    +0.035 A 
ATOM      6  C   UNL     1     -11.483  14.491  66.268  0.00  0.00    +0.000 A 
ATOM      7  C   UNL     1     -11.377  13.850  65.040  0.00  0.00    -0.003 A 
ATOM      8  C   UNL     1     -12.452  13.957  64.006  0.00  0.00    +0.033 C 
ATOM      9  C   UNL     1     -10.647  12.667  65.026  0.00  0.00    +0.094 A 
ATOM     10  N   UNL     1     -10.611  11.613  64.175  0.00  0.00    -0.231 NA
ENDROOT
BRANCH   5  11
ATOM     11  C   UNL     1     -11.412  14.407  68.729  0.00  0.00    +0.144 A 
ATOM     12  N   UNL     1     -11.006  15.403  69.524  0.00  0.00    -0.309 N 
ATOM     13  C   UNL     1     -10.326  16.580  69.045  0.00  0.00    +0.132 C 
ATOM     14  C   UNL     1     -11.680  15.325  70.696  0.00  0.00    +0.079 A 
ATOM     15  C   UNL     1     -12.330  14.099  70.713  0.00  0.00    +0.099 A 
ATOM     16  C   UNL     1     -13.192  13.726  71.722  0.00  0.00    +0.021 A 
ATOM     17  C   UNL     1     -13.081  14.413  72.917  0.00  0.00    +0.002 A 
ATOM     18  C   UNL     1     -12.299  15.557  72.981  0.00  0.00    +0.002 A 
ATOM     19  C   UNL     1     -11.843  16.125  71.798  0.00  0.00    +0.019 A 
ATOM     20  N   UNL     1     -12.059  13.534  69.537  0.00  0.00    -0.227 NA
ENDBRANCH   5  11
BRANCH   2  21
ATOM     21  C   UNL     1      -8.042  10.617  66.433  0.00  0.00    +0.134 C 
BRANCH  21  22
ATOM     22  C   UNL     1      -8.733  10.095  67.642  0.00  0.00    +0.000 A 
ATOM     23  C   UNL     1      -9.793   9.230  67.402  0.00  0.00    -0.002 A 
ATOM     24  C   UNL     1     -10.464   8.640  68.461  0.00  0.00    -0.000 A 
ATOM     25  C   UNL     1     -10.121   8.908  69.762  0.00  0.00    +0.000 A 
ATOM     26  C   UNL     1      -8.962   9.647  69.957  0.00  0.00    -0.000 A 
ATOM     27  C   UNL     1      -8.210  10.144  68.905  0.00  0.00    -0.002 A 
BRANCH  25  28
ATOM     28  C   UNL     1     -11.149   8.987  70.808  0.00  0.00    +0.006 A 
ATOM     29  C   UNL     1     -11.445   7.891  71.594  0.00  0.00    +0.080 A 
ATOM     30  C   UNL     1     -12.499   7.941  72.499  0.00  0.00    +0.007 A 
ATOM     31  C   UNL     1     -13.406   8.980  72.459  0.00  0.00    +0.000 A 
ATOM     32  C   UNL     1     -13.196   9.978  71.526  0.00  0.00    +0.000 A 
ATOM     33  C   UNL     1     -11.926  10.112  70.977  0.00  0.00    +0.000 A 
BRANCH  29  34
ATOM     34  C   UNL     1     -10.814   6.605  71.373  0.00  0.00    +0.388 C 
ATOM     35  O   UNL     1     -11.118   5.752  70.335  0.00  0.00    -0.241 OA
ATOM     36  O   UNL     1      -9.903   6.240  72.169  0.00  0.00    -0.241 OA
ENDBRANCH  29  34
ENDBRANCH  25  28
ENDBRANCH  21  22
ENDBRANCH   2  21
BRANCH   1  37
ATOM     37  C   UNL     1      -8.739  10.120  63.418  0.00  0.00    +0.064 C 
BRANCH  37  39
ATOM     38  C   UNL     1      -7.399  11.079  61.518  0.00  0.00    +0.000 C 
ATOM     39  C   UNL     1      -8.779  10.695  62.011  0.00  0.00    +0.008 C 
ENDBRANCH  37  39
ENDBRANCH   1  37
TORSDOF 7
ENDMDL
MODEL 2
REMARK VINA RESULT:      -8.0      1.179      2.085
REMARK  Name = 
REMARK  7 active torsions:
REMARK  status: ('A' for Active; 'I' for Inactive)
REMARK    1  A    between atoms: C_2  and  C_3
REMARK    2  A    between atoms: C_3  and  C_4
REMARK    3  A    between atoms: C_9  and  C_10
REMARK    4  A    between atoms: N_23  and  C_24
REMARK    5  A    between atoms: C_24  and  C_25
REMARK    6  A    between atoms: C_28  and  C_29
REMARK    7  A    between atoms: C_34  and  C_35
REMARK                            x       y       z     vdW  Elec       q    Type
REMARK                         _______ _______ _______ _____ _____    ______ ____
ROOT
ATOM      1  C   UNL     1      -9.427  10.530  64.933  0.00  0.00    +0.121 A 
ATOM      2  N   UNL     1      -8.967  10.976  66.127  0.00  0.00    -0.311 N 
ATOM      3  C   UNL     1      -9.797  11.975  66.503  0.00  0.00    +0.079 A 
ATOM      4  C   UNL     1     -10.082  12.591  67.715  0.00  0.00    +0.022 A 
ATOM      5  C   UNL     1     -10.915  13.700  67.722  0.00  0.00    +0.035 A 
ATOM      6  C   UNL     1     -11.491  14.114  66.534  0.00  0.00    +0.000 A 
ATOM      7  C   UNL     1     -11.389  13.376  65.362  0.00  0.00    -0.003 A 
ATOM      8  C   UNL     1     -12.460  13.411  64.319  0.00  0.00    +0.033 C 
ATOM      9  C   UNL     1     -10.670  12.189  65.445  0.00  0.00    +0.094 A 
ATOM     10  N   UNL     1     -10.642  11.071  64.680  0.00  0.00    -0.231 NA
ENDROOT
BRANCH   5  11
ATOM     11  C   UNL     1     -11.427  14.226  68.994  0.00  0.00    +0.144 A 
ATOM     12  N   UNL     1     -11.017  15.283  69.705  0.00  0.00    -0.309 N 
ATOM     13  C   UNL     1     -10.332  16.414  69.132  0.00  0.00    +0.132 C 
ATOM     14  C   UNL     1     -11.692  15.304  70.880  0.00  0.00    +0.079 A 
ATOM     15  C   UNL     1     -12.347  14.086  70.996  0.00  0.00    +0.099 A 
ATOM     16  C   UNL     1     -13.211  13.801  72.031  0.00  0.00    +0.021 A 
ATOM     17  C   UNL     1     -13.098  14.582  73.167  0.00  0.00    +0.002 A 
ATOM     18  C   UNL     1     -12.311  15.724  73.137  0.00  0.00    +0.002 A 
ATOM     19  C   UNL     1     -11.852  16.192  71.912  0.00  0.00    +0.019 A 
ATOM     20  N   UNL     1     -12.078  13.425  69.871  0.00  0.00    -0.227 NA
ENDBRANCH   5  11
BRANCH   2  21
ATOM     21  C   UNL     1      -8.089  10.233  67.019  0.00  0.00    +0.134 C 
BRANCH  21  22
ATOM     22  C   UNL     1      -8.852   9.343  67.933  0.00  0.00    +0.000 A 
ATOM     23  C   UNL     1      -8.733   9.628  69.287  0.00  0.00    -0.002 A 
ATOM     24  C   UNL     1      -9.452   8.896  70.218  0.00  0.00    -0.000 A 
ATOM     25  C   UNL     1     -10.275   7.866  69.837  0.00  0.00    +0.000 A 
ATOM     26  C   UNL     1     -10.489   7.718  68.473  0.00  0.00    -0.000 A 
ATOM     27  C   UNL     1      -9.869   8.522  67.531  0.00  0.00    -0.002 A 
BRANCH  25  28
ATOM     28  C   UNL     1     -10.407   6.663  70.669  0.00  0.00    +0.006 A 
ATOM     29  C   UNL     1     -11.459   6.527  71.553  0.00  0.00    +0.080 A 
ATOM     30  C   UNL     1     -11.511   5.442  72.421  0.00  0.00    +0.007 A 
ATOM     31  C   UNL     1     -10.412   4.623  72.583  0.00  0.00    +0.000 A 
ATOM     32  C   UNL     1      -9.291   4.897  71.820  0.00  0.00    +0.000 A 
ATOM     33  C   UNL     1      -9.443   5.680  70.682  0.00  0.00    +0.000 A 
BRANCH  29  34
ATOM     34  C   UNL     1     -12.428   7.587  71.753  0.00  0.00    +0.388 C 
ATOM     35  O   UNL     1     -13.686   7.615  71.192  0.00  0.00    -0.241 OA
ATOM     36  O   UNL     1     -12.115   8.548  72.513  0.00  0.00    -0.241 OA
ENDBRANCH  29  34
ENDBRANCH  25  28
ENDBRANCH  21  22
ENDBRANCH   2  21
BRANCH   1  37
ATOM     37  C   UNL     1      -8.784   9.504  64.051  0.00  0.00    +0.064 C 
BRANCH  37  39
ATOM     38  C   UNL     1      -8.333  10.728  61.901  0.00  0.00    +0.000 C 
ATOM     39  C   UNL     1      -9.210   9.714  62.606  0.00  0.00    +0.008 C 
ENDBRANCH  37  39
ENDBRANCH   1  37
TORSDOF 7
ENDMDL
MODEL 3
REMARK VINA RESULT:      -7.6      4.691      8.096
REMARK  Name = 
REMARK  7 active torsions:
REMARK  status: ('A' for Active; 'I' for Inactive)
REMARK    1  A    between atoms: C_2  and  C_3
REMARK    2  A    between atoms: C_3  and  C_4
REMARK    3  A    between atoms: C_9  and  C_10
REMARK    4  A    between atoms: N_23  and  C_24
REMARK    5  A    between atoms: C_24  and  C_25
REMARK    6  A    between atoms: C_28  and  C_29
REMARK    7  A    between atoms: C_34  and  C_35
REMARK                            x       y       z     vdW  Elec       q    Type
REMARK                         _______ _______ _______ _____ _____    ______ ____
ROOT
ATOM      1  C   UNL     1      -8.653  19.158  68.401  0.00  0.00    +0.121 A 
ATOM      2  N   UNL     1      -8.776  17.815  68.537  0.00  0.00    -0.311 N 
ATOM      3  C   UNL     1      -7.556  17.358  68.897  0.00  0.00    +0.079 A 
ATOM      4  C   UNL     1      -7.098  16.192  69.498  0.00  0.00    +0.022 A 
ATOM      5  C   UNL     1      -5.730  15.988  69.608  0.00  0.00    +0.035 A 
ATOM      6  C   UNL     1      -4.868  16.982  69.181  0.00  0.00    +0.000 A 
ATOM      7  C   UNL     1      -5.316  18.236  68.785  0.00  0.00    -0.003 A 
ATOM      8  C   UNL     1      -4.472  19.459  68.956  0.00  0.00    +0.033 C 
ATOM      9  C   UNL     1      -6.689  18.442  68.840  0.00  0.00    +0.094 A 
ATOM     10  N   UNL     1      -7.455  19.559  68.888  0.00  0.00    -0.231 NA
ENDROOT
BRANCH   5  11
ATOM     11  C   UNL     1      -5.215  14.895  70.442  0.00  0.00    +0.144 A 
ATOM     12  N   UNL     1      -5.327  13.572  70.277  0.00  0.00    -0.309 N 
ATOM     13  C   UNL     1      -5.532  12.943  68.997  0.00  0.00    +0.132 C 
ATOM     14  C   UNL     1      -4.816  12.953  71.368  0.00  0.00    +0.079 A 
ATOM     15  C   UNL     1      -4.618  13.929  72.336  0.00  0.00    +0.099 A 
ATOM     16  C   UNL     1      -4.017  13.665  73.547  0.00  0.00    +0.021 A 
ATOM     17  C   UNL     1      -3.987  12.343  73.951  0.00  0.00    +0.002 A 
ATOM     18  C   UNL     1      -4.343  11.345  73.055  0.00  0.00    +0.002 A 
ATOM     19  C   UNL     1      -4.485  11.668  71.711  0.00  0.00    +0.019 A 
ATOM     20  N   UNL     1      -4.966  15.080  71.761  0.00  0.00    -0.227 NA
ENDBRANCH   5  11
BRANCH   2  21
ATOM     21  C   UNL     1     -10.030  17.103  68.731  0.00  0.00    +0.134 C 
BRANCH  21  22
ATOM     22  C   UNL     1     -10.201  16.003  67.745  0.00  0.00    +0.000 A 
ATOM     23  C   UNL     1     -10.899  14.892  68.199  0.00  0.00    -0.002 A 
ATOM     24  C   UNL     1     -11.166  13.838  67.339  0.00  0.00    -0.000 A 
ATOM     25  C   UNL     1     -10.732  13.851  66.038  0.00  0.00    +0.000 A 
ATOM     26  C   UNL     1     -10.181  15.040  65.580  0.00  0.00    -0.000 A 
ATOM     27  C   UNL     1     -10.017  16.147  66.397  0.00  0.00    -0.002 A 
BRANCH  25  28
ATOM     28  C   UNL     1     -10.290  12.613  65.381  0.00  0.00    +0.006 A 
ATOM     29  C   UNL     1     -11.021  12.060  64.348  0.00  0.00    +0.080 A 
ATOM     30  C   UNL     1     -10.661  10.829  63.814  0.00  0.00    +0.007 A 
ATOM     31  C   UNL     1      -9.731  10.034  64.454  0.00  0.00    +0.000 A 
ATOM     32  C   UNL     1      -9.147  10.531  65.604  0.00  0.00    +0.000 A 
ATOM     33  C   UNL     1      -9.200  11.902  65.833  0.00  0.00    +0.000 A 
BRANCH  29  34
ATOM     34  C   UNL     1     -12.284  12.629  63.921  0.00  0.00    +0.388 C 
ATOM     35  O   UNL     1     -12.418  13.605  62.957  0.00  0.00    -0.241 OA
ATOM     36  O   UNL     1     -13.347  12.189  64.445  0.00  0.00    -0.241 OA
ENDBRANCH  29  34
ENDBRANCH  25  28
ENDBRANCH  21  22
ENDBRANCH   2  21
BRANCH   1  37
ATOM     37  C   UNL     1      -9.699  20.109  67.908  0.00  0.00    +0.064 C 
BRANCH  37  39
ATOM     38  C   UNL     1     -10.804  19.492  65.734  0.00  0.00    +0.000 C 
ATOM     39  C   UNL     1      -9.643  20.210  66.391  0.00  0.00    +0.008 C 
ENDBRANCH  37  39
ENDBRANCH   1  37
TORSDOF 7
ENDMDL
MODEL 4
REMARK VINA RESULT:      -7.5      3.998      7.965
REMARK  Name = 
REMARK  7 active torsions:
REMARK  status: ('A' for Active; 'I' for Inactive)
REMARK    1  A    between atoms: C_2  and  C_3
REMARK    2  A    between atoms: C_3  and  C_4
REMARK    3  A    between atoms: C_9  and  C_10
REMARK    4  A    between atoms: N_23  and  C_24
REMARK    5  A    between atoms: C_24  and  C_25
REMARK    6  A    between atoms: C_28  and  C_29
REMARK    7  A    between atoms: C_34  and  C_35
REMARK                            x       y       z     vdW  Elec       q    Type
REMARK                         _______ _______ _______ _____ _____    ______ ____
ROOT
ATOM      1  C   UNL     1     -10.962  12.922  65.602  0.00  0.00    +0.121 A 
ATOM      2  N   UNL     1     -11.491  12.816  66.845  0.00  0.00    -0.311 N 
ATOM      3  C   UNL     1     -11.054  11.638  67.344  0.00  0.00    +0.079 A 
ATOM      4  C   UNL     1     -10.948  11.109  68.624  0.00  0.00    +0.022 A 
ATOM      5  C   UNL     1     -10.567   9.783  68.771  0.00  0.00    +0.035 A 
ATOM      6  C   UNL     1     -10.237   9.052  67.644  0.00  0.00    +0.000 A 
ATOM      7  C   UNL     1     -10.128   9.632  66.387  0.00  0.00    -0.003 A 
ATOM      8  C   UNL     1      -9.194   9.089  65.353  0.00  0.00    +0.033 C 
ATOM      9  C   UNL     1     -10.370  10.999  66.319  0.00  0.00    +0.094 A 
ATOM     10  N   UNL     1     -10.035  11.953  65.416  0.00  0.00    -0.231 NA
ENDROOT
BRANCH   5  11
ATOM     11  C   UNL     1     -10.213   9.264  70.098  0.00  0.00    +0.144 A 
ATOM     12  N   UNL     1      -9.006   9.038  70.630  0.00  0.00    -0.309 N 
ATOM     13  C   UNL     1      -7.810   9.726  70.214  0.00  0.00    +0.132 C 
ATOM     14  C   UNL     1      -9.167   8.425  71.827  0.00  0.00    +0.079 A 
ATOM     15  C   UNL     1     -10.497   8.037  71.912  0.00  0.00    +0.099 A 
ATOM     16  C   UNL     1     -11.036   7.467  73.045  0.00  0.00    +0.021 A 
ATOM     17  C   UNL     1     -10.144   6.909  73.943  0.00  0.00    +0.002 A 
ATOM     18  C   UNL     1      -8.784   7.138  73.790  0.00  0.00    +0.002 A 
ATOM     19  C   UNL     1      -8.364   8.113  72.893  0.00  0.00    +0.019 A 
ATOM     20  N   UNL     1     -11.072   8.483  70.796  0.00  0.00    -0.227 NA
ENDBRANCH   5  11
BRANCH   2  21
ATOM     21  C   UNL     1     -11.999  13.926  67.638  0.00  0.00    +0.134 C 
BRANCH  21  22
ATOM     22  C   UNL     1     -10.942  14.932  67.925  0.00  0.00    +0.000 A 
ATOM     23  C   UNL     1     -11.298  15.942  68.810  0.00  0.00    -0.002 A 
ATOM     24  C   UNL     1     -10.366  16.894  69.192  0.00  0.00    -0.000 A 
ATOM     25  C   UNL     1      -9.088  16.881  68.694  0.00  0.00    +0.000 A 
ATOM     26  C   UNL     1      -8.727  15.772  67.942  0.00  0.00    -0.000 A 
ATOM     27  C   UNL     1      -9.615  14.749  67.652  0.00  0.00    -0.002 A 
BRANCH  25  28
ATOM     28  C   UNL     1      -8.378  18.137  68.416  0.00  0.00    +0.006 A 
ATOM     29  C   UNL     1      -8.906  19.072  67.548  0.00  0.00    +0.080 A 
ATOM     30  C   UNL     1      -8.173  20.200  67.200  0.00  0.00    +0.007 A 
ATOM     31  C   UNL     1      -6.833  20.288  67.518  0.00  0.00    +0.000 A 
ATOM     32  C   UNL     1      -6.273  19.243  68.228  0.00  0.00    +0.000 A 
ATOM     33  C   UNL     1      -7.121  18.386  68.921  0.00  0.00    +0.000 A 
BRANCH  29  34
ATOM     34  C   UNL     1     -10.135  18.824  66.819  0.00  0.00    +0.388 C 
ATOM     35  O   UNL     1     -10.239  18.008  65.713  0.00  0.00    -0.241 OA
ATOM     36  O   UNL     1     -11.197  19.369  67.234  0.00  0.00    -0.241 OA
ENDBRANCH  29  34
ENDBRANCH  25  28
ENDBRANCH  21  22
ENDBRANCH   2  21
BRANCH   1  37
ATOM     37  C   UNL     1     -11.240  13.997  64.598  0.00  0.00    +0.064 C 
BRANCH  37  39
ATOM     38  C   UNL     1     -12.437  12.108  63.448  0.00  0.00    +0.000 C 
ATOM     39  C   UNL     1     -12.410  13.599  63.712  0.00  0.00    +0.008 C 
ENDBRANCH  37  39
ENDBRANCH   1  37
TORSDOF 7
ENDMDL
MODEL 5
REMARK VINA RESULT:      -7.5      3.421      6.700
REMARK  Name = 
REMARK  7 active torsions:
REMARK  status: ('A' for Active; 'I' for Inactive)
REMARK    1  A    between atoms: C_2  and  C_3
REMARK    2  A    between atoms: C_3  and  C_4
REMARK    3  A    between atoms: C_9  and  C_10
REMARK    4  A    between atoms: N_23  and  C_24
REMARK    5  A    between atoms: C_24  and  C_25
REMARK    6  A    between atoms: C_28  and  C_29
REMARK    7  A    between atoms: C_34  and  C_35
REMARK                            x       y       z     vdW  Elec       q    Type
REMARK                         _______ _______ _______ _____ _____    ______ ____
ROOT
ATOM      1  C   UNL     1      -8.434  10.356  63.164  0.00  0.00    +0.121 A 
ATOM      2  N   UNL     1      -9.656  10.241  63.739  0.00  0.00    -0.311 N 
ATOM      3  C   UNL     1      -9.453   9.679  64.952  0.00  0.00    +0.079 A 
ATOM      4  C   UNL     1     -10.197   9.607  66.122  0.00  0.00    +0.022 A 
ATOM      5  C   UNL     1      -9.731   8.820  67.165  0.00  0.00    +0.035 A 
ATOM      6  C   UNL     1      -8.506   8.189  67.033  0.00  0.00    +0.000 A 
ATOM      7  C   UNL     1      -7.657   8.431  65.962  0.00  0.00    -0.003 A 
ATOM      8  C   UNL     1      -6.172   8.320  66.099  0.00  0.00    +0.033 C 
ATOM      9  C   UNL     1      -8.105   9.348  65.018  0.00  0.00    +0.094 A 
ATOM     10  N   UNL     1      -7.471  10.093  64.080  0.00  0.00    -0.231 NA
ENDROOT
BRANCH   5  11
ATOM     11  C   UNL     1     -10.358   8.909  68.489  0.00  0.00    +0.144 A 
ATOM     12  N   UNL     1     -10.767   7.930  69.305  0.00  0.00    -0.309 N 
ATOM     13  C   UNL     1     -10.222   6.596  69.286  0.00  0.00    +0.132 C 
ATOM     14  C   UNL     1     -11.413   8.485  70.359  0.00  0.00    +0.079 A 
ATOM     15  C   UNL     1     -11.626   9.821  70.050  0.00  0.00    +0.099 A 
ATOM     16  C   UNL     1     -12.176  10.714  70.944  0.00  0.00    +0.021 A 
ATOM     17  C   UNL     1     -12.890  10.175  71.999  0.00  0.00    +0.002 A 
ATOM     18  C   UNL     1     -12.835   8.809  72.238  0.00  0.00    +0.002 A 
ATOM     19  C   UNL     1     -11.880   8.049  71.572  0.00  0.00    +0.019 A 
ATOM     20  N   UNL     1     -11.053  10.010  68.862  0.00  0.00    -0.227 NA
ENDBRANCH   5  11
BRANCH   2  21
ATOM     21  C   UNL     1     -10.841  10.991  63.350  0.00  0.00    +0.134 C 
BRANCH  21  22
ATOM     22  C   UNL     1     -11.077  12.156  64.243  0.00  0.00    +0.000 A 
ATOM     23  C   UNL     1     -10.011  13.036  64.379  0.00  0.00    -0.002 A 
ATOM     24  C   UNL     1     -10.149  14.185  65.140  0.00  0.00    -0.000 A 
ATOM     25  C   UNL     1     -11.321  14.472  65.793  0.00  0.00    +0.000 A 
ATOM     26  C   UNL     1     -12.407  13.657  65.505  0.00  0.00    -0.000 A 
ATOM     27  C   UNL     1     -12.315  12.571  64.649  0.00  0.00    -0.002 A 
BRANCH  25  28
ATOM     28  C   UNL     1     -11.306  15.126  67.108  0.00  0.00    +0.006 A 
ATOM     29  C   UNL     1     -10.735  16.373  67.273  0.00  0.00    +0.080 A 
ATOM     30  C   UNL     1     -10.619  16.930  68.541  0.00  0.00    +0.007 A 
ATOM     31  C   UNL     1     -10.848  16.163  69.665  0.00  0.00    +0.000 A 
ATOM     32  C   UNL     1     -11.237  14.850  69.477  0.00  0.00    +0.000 A 
ATOM     33  C   UNL     1     -11.761  14.488  68.241  0.00  0.00    +0.000 A 
BRANCH  29  34
ATOM     34  C   UNL     1     -10.062  17.051  66.182  0.00  0.00    +0.388 C 
ATOM     35  O   UNL     1      -8.698  17.056  65.986  0.00  0.00    -0.241 OA
ATOM     36  O   UNL     1     -10.768  17.663  65.331  0.00  0.00    -0.241 OA
ENDBRANCH  29  34
ENDBRANCH  25  28
ENDBRANCH  21  22
ENDBRANCH   2  21
BRANCH   1  37
ATOM     37  C   UNL     1      -8.139  10.819  61.771  0.00  0.00    +0.064 C 
BRANCH  37  39
ATOM     38  C   UNL     1      -6.151  11.995  60.775  0.00  0.00    +0.000 C 
ATOM     39  C   UNL     1      -6.642  10.762  61.506  0.00  0.00    +0.008 C 
ENDBRANCH  37  39
ENDBRANCH   1  37
TORSDOF 7
ENDMDL
MODEL 6
REMARK VINA RESULT:      -7.5      4.284      9.793
REMARK  Name = 
REMARK  7 active torsions:
REMARK  status: ('A' for Active; 'I' for Inactive)
REMARK    1  A    between atoms: C_2  and  C_3
REMARK    2  A    between atoms: C_3  and  C_4
REMARK    3  A    between atoms: C_9  and  C_10
REMARK    4  A    between atoms: N_23  and  C_24
REMARK    5  A    between atoms: C_24  and  C_25
REMARK    6  A    between atoms: C_28  and  C_29
REMARK    7  A    between atoms: C_34  and  C_35
REMARK                            x       y       z     vdW  Elec       q    Type
REMARK                         _______ _______ _______ _____ _____    ______ ____
ROOT
ATOM      1  C   UNL     1     -12.017  14.572  69.784  0.00  0.00    +0.121 A 
ATOM      2  N   UNL     1     -11.207  14.806  68.723  0.00  0.00    -0.311 N 
ATOM      3  C   UNL     1     -10.789  13.595  68.290  0.00  0.00    +0.079 A 
ATOM      4  C   UNL     1     -10.250  13.127  67.099  0.00  0.00    +0.022 A 
ATOM      5  C   UNL     1      -9.801  11.816  67.037  0.00  0.00    +0.035 A 
ATOM      6  C   UNL     1      -9.971  10.996  68.140  0.00  0.00    +0.000 A 
ATOM      7  C   UNL     1     -10.705  11.389  69.252  0.00  0.00    -0.003 A 
ATOM      8  C   UNL     1     -11.435  10.396  70.098  0.00  0.00    +0.033 C 
ATOM      9  C   UNL     1     -11.265  12.660  69.199  0.00  0.00    +0.094 A 
ATOM     10  N   UNL     1     -12.287  13.247  69.869  0.00  0.00    -0.231 NA
ENDROOT
BRANCH   5  11
ATOM     11  C   UNL     1      -9.452  11.219  65.742  0.00  0.00    +0.144 A 
ATOM     12  N   UNL     1     -10.094  11.291  64.570  0.00  0.00    -0.309 N 
ATOM     13  C   UNL     1     -10.977  12.371  64.210  0.00  0.00    +0.132 C 
ATOM     14  C   UNL     1      -9.478  10.469  63.686  0.00  0.00    +0.079 A 
ATOM     15  C   UNL     1      -8.591   9.684  64.408  0.00  0.00    +0.099 A 
ATOM     16  C   UNL     1      -7.722   8.798  63.809  0.00  0.00    +0.021 A 
ATOM     17  C   UNL     1      -8.032   8.401  62.520  0.00  0.00    +0.002 A 
ATOM     18  C   UNL     1      -9.036   9.058  61.824  0.00  0.00    +0.002 A 
ATOM     19  C   UNL     1      -9.540  10.248  62.335  0.00  0.00    +0.019 A 
ATOM     20  N   UNL     1      -8.679  10.109  65.669  0.00  0.00    -0.227 NA
ENDBRANCH   5  11
BRANCH   2  21
ATOM     21  C   UNL     1     -11.187  16.031  67.937  0.00  0.00    +0.134 C 
BRANCH  21  22
ATOM     22  C   UNL     1      -9.949  16.820  68.172  0.00  0.00    +0.000 A 
ATOM     23  C   UNL     1     -10.131  18.188  68.335  0.00  0.00    -0.002 A 
ATOM     24  C   UNL     1      -9.048  19.004  68.621  0.00  0.00    -0.000 A 
ATOM     25  C   UNL     1      -7.778  18.496  68.725  0.00  0.00    +0.000 A 
ATOM     26  C   UNL     1      -7.662  17.113  68.714  0.00  0.00    -0.000 A 
ATOM     27  C   UNL     1      -8.753  16.276  68.550  0.00  0.00    -0.002 A 
BRANCH  25  28
ATOM     28  C   UNL     1      -6.620  19.268  68.256  0.00  0.00    +0.006 A 
ATOM     29  C   UNL     1      -5.657  19.710  69.143  0.00  0.00    +0.080 A 
ATOM     30  C   UNL     1      -4.630  20.539  68.709  0.00  0.00    +0.007 A 
ATOM     31  C   UNL     1      -4.685  21.125  67.460  0.00  0.00    +0.000 A 
ATOM     32  C   UNL     1      -5.765  20.816  66.655  0.00  0.00    +0.000 A 
ATOM     33  C   UNL     1      -6.499  19.672  66.945  0.00  0.00    +0.000 A 
BRANCH  29  34
ATOM     34  C   UNL     1      -5.786  19.499  70.572  0.00  0.00    +0.388 C 
ATOM     35  O   UNL     1      -5.300  18.401  71.248  0.00  0.00    -0.241 OA
ATOM     36  O   UNL     1      -6.360  20.391  71.259  0.00  0.00    -0.241 OA
ENDBRANCH  29  34
ENDBRANCH  25  28
ENDBRANCH  21  22
ENDBRANCH   2  21
BRANCH   1  37
ATOM     37  C   UNL     1     -12.641  15.597  70.679  0.00  0.00    +0.064 C 
BRANCH  37  39
ATOM     38  C   UNL     1     -12.268  15.587  73.166  0.00  0.00    +0.000 C 
ATOM     39  C   UNL     1     -11.692  15.950  71.813  0.00  0.00    +0.008 C 
ENDBRANCH  37  39
ENDBRANCH   1  37
TORSDOF 7
ENDMDL
MODEL 7
REMARK VINA RESULT:      -7.5      4.299      9.807
REMARK  Name = 
REMARK  7 active torsions:
REMARK  status: ('A' for Active; 'I' for Inactive)
REMARK    1  A    between atoms: C_2  and  C_3
REMARK    2  A    between atoms: C_3  and  C_4
REMARK    3  A    between atoms: C_9  and  C_10
REMARK    4  A    between atoms: N_23  and  C_24
REMARK    5  A    between atoms: C_24  and  C_25
REMARK    6  A    between atoms: C_28  and  C_29
REMARK    7  A    between atoms: C_34  and  C_35
REMARK                            x       y       z     vdW  Elec       q    Type
REMARK                         _______ _______ _______ _____ _____    ______ ____
ROOT
ATOM      1  C   UNL     1     -11.936  14.133  69.435  0.00  0.00    +0.121 A 
ATOM      2  N   UNL     1     -11.161  14.365  68.347  0.00  0.00    -0.311 N 
ATOM      3  C   UNL     1     -10.720  13.156  67.931  0.00  0.00    +0.079 A 
ATOM      4  C   UNL     1     -10.199  12.674  66.737  0.00  0.00    +0.022 A 
ATOM      5  C   UNL     1      -9.715  11.375  66.694  0.00  0.00    +0.035 A 
ATOM      6  C   UNL     1      -9.833  10.578  67.820  0.00  0.00    +0.000 A 
ATOM      7  C   UNL     1     -10.548  10.976  68.941  0.00  0.00    -0.003 A 
ATOM      8  C   UNL     1     -11.227   9.984  69.830  0.00  0.00    +0.033 C 
ATOM      9  C   UNL     1     -11.145  12.230  68.875  0.00  0.00    +0.094 A 
ATOM     10  N   UNL     1     -12.165  12.804  69.558  0.00  0.00    -0.231 NA
ENDROOT
BRANCH   5  11
ATOM     11  C   UNL     1      -9.383  10.757  65.404  0.00  0.00    +0.144 A 
ATOM     12  N   UNL     1      -9.944  10.941  64.203  0.00  0.00    -0.309 N 
ATOM     13  C   UNL     1     -10.642  12.143  63.824  0.00  0.00    +0.132 C 
ATOM     14  C   UNL     1      -9.403  10.056  63.331  0.00  0.00    +0.079 A 
ATOM     15  C   UNL     1      -8.677   9.138  64.079  0.00  0.00    +0.099 A 
ATOM     16  C   UNL     1      -7.912   8.148  63.503  0.00  0.00    +0.021 A 
ATOM     17  C   UNL     1      -8.203   7.822  62.190  0.00  0.00    +0.002 A 
ATOM     18  C   UNL     1      -9.063   8.629  61.459  0.00  0.00    +0.002 A 
ATOM     19  C   UNL     1      -9.420   9.870  61.973  0.00  0.00    +0.019 A 
ATOM     20  N   UNL     1      -8.774   9.549  65.343  0.00  0.00    -0.227 NA
ENDBRANCH   5  11
BRANCH   2  21
ATOM     21  C   UNL     1     -11.197  15.570  67.532  0.00  0.00    +0.134 C 
BRANCH  21  22
ATOM     22  C   UNL     1     -10.129  16.531  67.917  0.00  0.00    +0.000 A 
ATOM     23  C   UNL     1     -10.568  17.781  68.336  0.00  0.00    -0.002 A 
ATOM     24  C   UNL     1      -9.657  18.728  68.775  0.00  0.00    -0.000 A 
ATOM     25  C   UNL     1      -8.309  18.471  68.786  0.00  0.00    +0.000 A 
ATOM     26  C   UNL     1      -7.926  17.165  68.514  0.00  0.00    -0.000 A 
ATOM     27  C   UNL     1      -8.838  16.173  68.190  0.00  0.00    -0.002 A 
BRANCH  25  28
ATOM     28  C   UNL     1      -7.341  19.530  68.477  0.00  0.00    +0.006 A 
ATOM     29  C   UNL     1      -7.168  19.976  67.181  0.00  0.00    +0.080 A 
ATOM     30  C   UNL     1      -6.167  20.892  66.881  0.00  0.00    +0.007 A 
ATOM     31  C   UNL     1      -5.188  21.186  67.808  0.00  0.00    +0.000 A 
ATOM     32  C   UNL     1      -5.273  20.576  69.045  0.00  0.00    +0.000 A 
ATOM     33  C   UNL     1      -6.497  20.045  69.437  0.00  0.00    +0.000 A 
BRANCH  29  34
ATOM     34  C   UNL     1      -7.873  19.369  66.068  0.00  0.00    +0.388 C 
ATOM     35  O   UNL     1      -9.159  19.688  65.688  0.00  0.00    -0.241 OA
ATOM     36  O   UNL     1      -7.266  18.504  65.375  0.00  0.00    -0.241 OA
ENDBRANCH  29  34
ENDBRANCH  25  28
ENDBRANCH  21  22
ENDBRANCH   2  21
BRANCH   1  37
ATOM     37  C   UNL     1     -12.565  15.162  70.322  0.00  0.00    +0.064 C 
BRANCH  37  39
ATOM     38  C   UNL     1     -12.034  15.576  72.745  0.00  0.00    +0.000 C 
ATOM     39  C   UNL     1     -11.544  15.692  71.317  0.00  0.00    +0.008 C 
ENDBRANCH  37  39
ENDBRANCH   1  37
TORSDOF 7
ENDMDL
MODEL 8
REMARK VINA RESULT:      -7.5      3.848      7.919
REMARK  Name = 
REMARK  7 active torsions:
REMARK  status: ('A' for Active; 'I' for Inactive)
REMARK    1  A    between atoms: C_2  and  C_3
REMARK    2  A    between atoms: C_3  and  C_4
REMARK    3  A    between atoms: C_9  and  C_10
REMARK    4  A    between atoms: N_23  and  C_24
REMARK    5  A    between atoms: C_24  and  C_25
REMARK    6  A    between atoms: C_28  and  C_29
REMARK    7  A    between atoms: C_34  and  C_35
REMARK                            x       y       z     vdW  Elec       q    Type
REMARK                         _______ _______ _______ _____ _____    ______ ____
ROOT
ATOM      1  C   UNL     1     -11.639  12.555  66.786  0.00  0.00    +0.121 A 
ATOM      2  N   UNL     1     -11.814  12.422  68.124  0.00  0.00    -0.311 N 
ATOM      3  C   UNL     1     -11.244  11.245  68.466  0.00  0.00    +0.079 A 
ATOM      4  C   UNL     1     -10.791  10.700  69.661  0.00  0.00    +0.022 A 
ATOM      5  C   UNL     1     -10.366   9.380  69.676  0.00  0.00    +0.035 A 
ATOM      6  C   UNL     1     -10.340   8.670  68.488  0.00  0.00    +0.000 A 
ATOM      7  C   UNL     1     -10.579   9.270  67.258  0.00  0.00    -0.003 A 
ATOM      8  C   UNL     1      -9.948   8.760  66.003  0.00  0.00    +0.033 C 
ATOM      9  C   UNL     1     -10.849  10.633  67.283  0.00  0.00    +0.094 A 
ATOM     10  N   UNL     1     -10.781  11.606  66.341  0.00  0.00    -0.231 NA
ENDROOT
BRANCH   5  11
ATOM     11  C   UNL     1      -9.663   8.848  70.850  0.00  0.00    +0.144 A 
ATOM     12  N   UNL     1     -10.146   8.514  72.053  0.00  0.00    -0.309 N 
ATOM     13  C   UNL     1     -11.514   8.128  72.284  0.00  0.00    +0.132 C 
ATOM     14  C   UNL     1      -9.108   8.202  72.866  0.00  0.00    +0.079 A 
ATOM     15  C   UNL     1      -7.947   8.600  72.217  0.00  0.00    +0.099 A 
ATOM     16  C   UNL     1      -6.689   8.344  72.718  0.00  0.00    +0.021 A 
ATOM     17  C   UNL     1      -6.606   8.056  74.068  0.00  0.00    +0.002 A 
ATOM     18  C   UNL     1      -7.765   7.817  74.791  0.00  0.00    +0.002 A 
ATOM     19  C   UNL     1      -8.959   7.631  74.103  0.00  0.00    +0.019 A 
ATOM     20  N   UNL     1      -8.341   9.076  71.036  0.00  0.00    -0.227 NA
ENDBRANCH   5  11
BRANCH   2  21
ATOM     21  C   UNL     1     -12.108  13.511  69.044  0.00  0.00    +0.134 C 
BRANCH  21  22
ATOM     22  C   UNL     1     -11.098  14.599  68.954  0.00  0.00    +0.000 A 
ATOM     23  C   UNL     1     -11.609  15.882  68.799  0.00  0.00    -0.002 A 
ATOM     24  C   UNL     1     -10.755  16.972  68.767  0.00  0.00    -0.000 A 
ATOM     25  C   UNL     1      -9.395  16.817  68.863  0.00  0.00    +0.000 A 
ATOM     26  C   UNL     1      -8.937  15.545  69.176  0.00  0.00    -0.000 A 
ATOM     27  C   UNL     1      -9.790  14.465  69.331  0.00  0.00    -0.002 A 
BRANCH  25  28
ATOM     28  C   UNL     1      -8.486  17.688  68.106  0.00  0.00    +0.006 A 
ATOM     29  C   UNL     1      -8.448  17.645  66.726  0.00  0.00    +0.080 A 
ATOM     30  C   UNL     1      -7.502  18.385  66.026  0.00  0.00    +0.007 A 
ATOM     31  C   UNL     1      -6.446  18.976  66.690  0.00  0.00    +0.000 A 
ATOM     32  C   UNL     1      -6.399  18.843  68.065  0.00  0.00    +0.000 A 
ATOM     33  C   UNL     1      -7.567  18.499  68.736  0.00  0.00    +0.000 A 
BRANCH  29  34
ATOM     34  C   UNL     1      -9.242  16.693  65.974  0.00  0.00    +0.388 C 
ATOM     35  O   UNL     1     -10.400  17.002  65.295  0.00  0.00    -0.241 OA
ATOM     36  O   UNL     1      -8.838  15.497  65.908  0.00  0.00    -0.241 OA
ENDBRANCH  29  34
ENDBRANCH  25  28
ENDBRANCH  21  22
ENDBRANCH   2  21
BRANCH   1  37
ATOM     37  C   UNL     1     -12.190  13.639  65.913  0.00  0.00    +0.064 C 
BRANCH  37  39
ATOM     38  C   UNL     1     -12.207  12.840  63.529  0.00  0.00    +0.000 C 
ATOM     39  C   UNL     1     -11.470  13.651  64.574  0.00  0.00    +0.008 C 
ENDBRANCH  37  39
ENDBRANCH   1  37
TORSDOF 7
ENDMDL
MODEL 9
REMARK VINA RESULT:      -7.5      2.966      7.022
REMARK  Name = 
REMARK  7 active torsions:
REMARK  status: ('A' for Active; 'I' for Inactive)
REMARK    1  A    between atoms: C_2  and  C_3
REMARK    2  A    between atoms: C_3  and  C_4
REMARK    3  A    between atoms: C_9  and  C_10
REMARK    4  A    between atoms: N_23  and  C_24
REMARK    5  A    between atoms: C_24  and  C_25
REMARK    6  A    between atoms: C_28  and  C_29
REMARK    7  A    between atoms: C_34  and  C_35
REMARK                            x       y       z     vdW  Elec       q    Type
REMARK                         _______ _______ _______ _____ _____    ______ ____
ROOT
ATOM      1  C   UNL     1     -10.892   5.995  71.167  0.00  0.00    +0.121 A 
ATOM      2  N   UNL     1     -10.525   7.110  70.488  0.00  0.00    -0.311 N 
ATOM      3  C   UNL     1     -11.485   8.032  70.725  0.00  0.00    +0.079 A 
ATOM      4  C   UNL     1     -11.545   9.416  70.621  0.00  0.00    +0.022 A 
ATOM      5  C   UNL     1     -12.760  10.051  70.827  0.00  0.00    +0.035 A 
ATOM      6  C   UNL     1     -13.858   9.294  71.199  0.00  0.00    +0.000 A 
ATOM      7  C   UNL     1     -13.757   7.946  71.521  0.00  0.00    -0.003 A 
ATOM      8  C   UNL     1     -14.686   7.304  72.500  0.00  0.00    +0.033 C 
ATOM      9  C   UNL     1     -12.485   7.392  71.447  0.00  0.00    +0.094 A 
ATOM     10  N   UNL     1     -11.927   6.283  71.992  0.00  0.00    -0.231 NA
ENDROOT
BRANCH   5  11
ATOM     11  C   UNL     1     -12.812  11.512  70.961  0.00  0.00    +0.144 A 
ATOM     12  N   UNL     1     -12.145  12.453  70.284  0.00  0.00    -0.309 N 
ATOM     13  C   UNL     1     -11.626  12.262  68.954  0.00  0.00    +0.132 C 
ATOM     14  C   UNL     1     -12.407  13.659  70.844  0.00  0.00    +0.079 A 
ATOM     15  C   UNL     1     -13.049  13.418  72.051  0.00  0.00    +0.099 A 
ATOM     16  C   UNL     1     -13.549  14.428  72.844  0.00  0.00    +0.021 A 
ATOM     17  C   UNL     1     -13.040  15.696  72.627  0.00  0.00    +0.002 A 
ATOM     18  C   UNL     1     -12.250  15.936  71.513  0.00  0.00    +0.002 A 
ATOM     19  C   UNL     1     -12.184  14.971  70.515  0.00  0.00    +0.019 A 
ATOM     20  N   UNL     1     -13.187  12.094  72.126  0.00  0.00    -0.227 NA
ENDBRANCH   5  11
BRANCH   2  21
ATOM     21  C   UNL     1      -9.178   7.402  70.022  0.00  0.00    +0.134 C 
BRANCH  21  22
ATOM     22  C   UNL     1      -9.176   7.942  68.636  0.00  0.00    +0.000 A 
ATOM     23  C   UNL     1      -8.474   9.126  68.454  0.00  0.00    -0.002 A 
ATOM     24  C   UNL     1      -8.359   9.680  67.189  0.00  0.00    -0.000 A 
ATOM     25  C   UNL     1      -8.948   9.094  66.097  0.00  0.00    +0.000 A 
ATOM     26  C   UNL     1      -9.501   7.836  66.292  0.00  0.00    -0.000 A 
ATOM     27  C   UNL     1      -9.517   7.214  67.530  0.00  0.00    -0.002 A 
BRANCH  25  28
ATOM     28  C   UNL     1      -9.518   9.915  65.021  0.00  0.00    +0.006 A 
ATOM     29  C   UNL     1      -8.931   9.953  63.772  0.00  0.00    +0.080 A 
ATOM     30  C   UNL     1      -9.406  10.823  62.798  0.00  0.00    +0.007 A 
ATOM     31  C   UNL     1     -10.302  11.820  63.128  0.00  0.00    +0.000 A 
ATOM     32  C   UNL     1     -10.734  11.884  64.439  0.00  0.00    +0.000 A 
ATOM     33  C   UNL     1     -10.588  10.756  65.239  0.00  0.00    +0.000 A 
BRANCH  29  34
ATOM     34  C   UNL     1      -7.693   9.250  63.492  0.00  0.00    +0.388 C 
ATOM     35  O   UNL     1      -6.435   9.740  63.768  0.00  0.00    -0.241 OA
ATOM     36  O   UNL     1      -7.762   8.096  62.983  0.00  0.00    -0.241 OA
ENDBRANCH  29  34
ENDBRANCH  25  28
ENDBRANCH  21  22
ENDBRANCH   2  21
BRANCH   1  37
ATOM     37  C   UNL     1     -10.214   4.661  71.134  0.00  0.00    +0.064 C 
BRANCH  37  39
ATOM     38  C   UNL     1     -10.490   2.950  72.956  0.00  0.00    +0.000 C 
ATOM     39  C   UNL     1      -9.815   4.240  72.540  0.00  0.00    +0.008 C 
ENDBRANCH  37  39
ENDBRANCH   1  37
TORSDOF 7
ENDMDL
