MODEL 1
REMARK VINA RESULT:      -5.8      0.000      0.000
REMARK  Name = 
REMARK  2 active torsions:
REMARK  status: ('A' for Active; 'I' for Inactive)
REMARK    1  A    between atoms: C_2  and  N_3
REMARK    2  A    between atoms: C_7  and  C_8
REMARK                            x       y       z     vdW  Elec       q    Type
REMARK                         _______ _______ _______ _____ _____    ______ ____
ROOT
ATOM      1  N   UNL     1     -11.282  14.749  67.358  0.00  0.00    -0.211 N 
ATOM      2  C   UNL     1     -11.637  15.583  68.474  0.00  0.00    +0.257 C 
ATOM      3  O   UNL     1     -11.308  16.812  68.433  0.00  0.00    -0.272 OA
ATOM      4  C   UNL     1     -10.808  14.832  69.666  0.00  0.00    +0.195 C 
ATOM      5  N   UNL     1     -11.218  13.376  69.181  0.00  0.00    -0.176 NA
ATOM      6  C   UNL     1     -11.609  13.462  67.866  0.00  0.00    +0.330 C 
ATOM      7  O   UNL     1     -12.135  12.486  67.247  0.00  0.00    -0.250 OA
ENDROOT
BRANCH   4   8
ATOM      8  C   UNL     1     -12.045  14.996  70.719  0.00  0.00    +0.006 A 
ATOM      9  C   UNL     1     -11.909  16.095  71.562  0.00  0.00    -0.002 A 
ATOM     10  C   UNL     1     -12.314  15.941  72.878  0.00  0.00    -0.000 A 
ATOM     11  C   UNL     1     -12.867  14.735  73.278  0.00  0.00    -0.000 A 
ATOM     12  C   UNL     1     -13.461  13.974  72.289  0.00  0.00    -0.000 A 
ATOM     13  C   UNL     1     -12.715  13.905  71.116  0.00  0.00    -0.002 A 
ENDBRANCH   4   8
BRANCH   1  15
ATOM     14  C   UNL     1     -10.365  15.016  65.580  0.00  0.00    +0.024 C 
ATOM     15  C   UNL     1     -11.093  15.096  65.968  0.00  0.00    +0.103 C 
ENDBRANCH   1  15
TORSDOF 2
ENDMDL
MODEL 2
REMARK VINA RESULT:      -5.5      1.372      2.605
REMARK  Name = 
REMARK  2 active torsions:
REMARK  status: ('A' for Active; 'I' for Inactive)
REMARK    1  A    between atoms: C_2  and  N_3
REMARK    2  A    between atoms: C_7  and  C_8
REMARK                            x       y       z     vdW  Elec       q    Type
REMARK                         _______ _______ _______ _____ _____    ______ ____
ROOT
ATOM      1  N   UNL     1     -10.224  15.519  67.899  0.00  0.00    -0.211 N 
ATOM      2  C   UNL     1     -10.438  14.546  68.936  0.00  0.00    +0.257 C 
ATOM      3  O   UNL     1     -10.119  13.337  68.698  0.00  0.00    -0.272 OA
ATOM      4  C   UNL     1     -12.060  14.662  69.104  0.00  0.00    +0.195 C 
ATOM      5  N   UNL     1     -12.061  16.250  69.040  0.00  0.00    -0.176 NA
ATOM      6  C   UNL     1     -10.888  16.651  68.448  0.00  0.00    +0.330 C 
ATOM      7  O   UNL     1     -10.534  17.869  68.393  0.00  0.00    -0.250 OA
ENDROOT
BRANCH   4   8
ATOM      8  C   UNL     1     -11.964  14.575  70.731  0.00  0.00    +0.006 A 
ATOM      9  C   UNL     1     -12.729  13.547  71.274  0.00  0.00    -0.002 A 
ATOM     10  C   UNL     1     -13.380  13.801  72.470  0.00  0.00    -0.000 A 
ATOM     11  C   UNL     1     -13.209  15.031  73.084  0.00  0.00    -0.000 A 
ATOM     12  C   UNL     1     -12.041  15.709  72.786  0.00  0.00    -0.000 A 
ATOM     13  C   UNL     1     -11.717  15.690  71.433  0.00  0.00    -0.002 A 
ENDBRANCH   4   8
BRANCH   1  15
ATOM     14  C   UNL     1      -9.452  15.450  66.036  0.00  0.00    +0.024 C 
ATOM     15  C   UNL     1      -9.247  15.535  66.835  0.00  0.00    +0.103 C 
ENDBRANCH   1  15
TORSDOF 2
ENDMDL
MODEL 3
REMARK VINA RESULT:      -5.4      3.842      4.876
REMARK  Name = 
REMARK  2 active torsions:
REMARK  status: ('A' for Active; 'I' for Inactive)
REMARK    1  A    between atoms: C_2  and  N_3
REMARK    2  A    between atoms: C_7  and  C_8
REMARK                            x       y       z     vdW  Elec       q    Type
REMARK                         _______ _______ _______ _____ _____    ______ ____
ROOT
ATOM      1  N   UNL     1     -11.389  14.697  65.258  0.00  0.00    -0.211 N 
ATOM      2  C   UNL     1     -11.264  16.128  65.222  0.00  0.00    +0.257 C 
ATOM      3  O   UNL     1     -11.314  16.706  64.089  0.00  0.00    -0.272 OA
ATOM      4  C   UNL     1      -9.770  16.300  65.861  0.00  0.00    +0.195 C 
ATOM      5  N   UNL     1     -10.017  15.225  67.004  0.00  0.00    -0.176 NA
ATOM      6  C   UNL     1     -11.069  14.430  66.617  0.00  0.00    +0.330 C 
ATOM      7  O   UNL     1     -11.598  13.575  67.393  0.00  0.00    -0.250 OA
ENDROOT
BRANCH   4   8
ATOM      8  C   UNL     1     -10.228  17.585  66.757  0.00  0.00    +0.006 A 
ATOM      9  C   UNL     1     -10.441  18.735  66.002  0.00  0.00    -0.002 A 
ATOM     10  C   UNL     1     -10.041  19.941  66.555  0.00  0.00    -0.000 A 
ATOM     11  C   UNL     1      -9.496  19.953  67.829  0.00  0.00    -0.000 A 
ATOM     12  C   UNL     1      -9.857  18.909  68.660  0.00  0.00    -0.000 A 
ATOM     13  C   UNL     1      -9.833  17.666  68.035  0.00  0.00    -0.002 A 
ENDBRANCH   4   8
BRANCH   1  15
ATOM     14  C   UNL     1     -11.712  13.150  64.002  0.00  0.00    +0.024 C 
ATOM     15  C   UNL     1     -12.078  13.806  64.352  0.00  0.00    +0.103 C 
ENDBRANCH   1  15
TORSDOF 2
ENDMDL
MODEL 4
REMARK VINA RESULT:      -5.3      4.178      6.044
REMARK  Name = 
REMARK  2 active torsions:
REMARK  status: ('A' for Active; 'I' for Inactive)
REMARK    1  A    between atoms: C_2  and  N_3
REMARK    2  A    between atoms: C_7  and  C_8
REMARK                            x       y       z     vdW  Elec       q    Type
REMARK                         _______ _______ _______ _____ _____    ______ ____
ROOT
ATOM      1  N   UNL     1     -10.349  16.772  66.251  0.00  0.00    -0.211 N 
ATOM      2  C   UNL     1     -10.739  16.060  65.064  0.00  0.00    +0.257 C 
ATOM      3  O   UNL     1     -11.391  16.691  64.173  0.00  0.00    -0.272 OA
ATOM      4  C   UNL     1     -11.688  14.905  65.725  0.00  0.00    +0.195 C 
ATOM      5  N   UNL     1     -10.688  14.619  66.927  0.00  0.00    -0.176 NA
ATOM      6  C   UNL     1      -9.862  15.708  67.059  0.00  0.00    +0.330 C 
ATOM      7  O   UNL     1      -8.860  15.712  67.838  0.00  0.00    -0.250 OA
ENDROOT
BRANCH   4   8
ATOM      8  C   UNL     1     -11.081  13.751  64.743  0.00  0.00    +0.006 A 
ATOM      9  C   UNL     1     -11.987  13.315  63.780  0.00  0.00    -0.002 A 
ATOM     10  C   UNL     1     -11.987  11.965  63.472  0.00  0.00    -0.000 A 
ATOM     11  C   UNL     1     -11.073  11.129  64.094  0.00  0.00    -0.000 A 
ATOM     12  C   UNL     1      -9.912  11.724  64.552  0.00  0.00    -0.000 A 
ATOM     13  C   UNL     1     -10.127  12.932  65.207  0.00  0.00    -0.002 A 
ENDBRANCH   4   8
BRANCH   1  15
ATOM     14  C   UNL     1     -10.540  18.667  66.919  0.00  0.00    +0.024 C 
ATOM     15  C   UNL     1     -10.076  18.179  66.436  0.00  0.00    +0.103 C 
ENDBRANCH   1  15
TORSDOF 2
ENDMDL
MODEL 5
REMARK VINA RESULT:      -5.3      3.269      5.332
REMARK  Name = 
REMARK  2 active torsions:
REMARK  status: ('A' for Active; 'I' for Inactive)
REMARK    1  A    between atoms: C_2  and  N_3
REMARK    2  A    between atoms: C_7  and  C_8
REMARK                            x       y       z     vdW  Elec       q    Type
REMARK                         _______ _______ _______ _____ _____    ______ ____
ROOT
ATOM      1  N   UNL     1     -11.167  15.194  67.060  0.00  0.00    -0.211 N 
ATOM      2  C   UNL     1     -10.489  16.058  66.133  0.00  0.00    +0.257 C 
ATOM      3  O   UNL     1     -10.173  15.587  64.995  0.00  0.00    -0.272 OA
ATOM      4  C   UNL     1      -9.133  16.384  66.987  0.00  0.00    +0.195 C 
ATOM      5  N   UNL     1      -9.916  16.599  68.353  0.00  0.00    -0.176 NA
ATOM      6  C   UNL     1     -11.141  15.987  68.241  0.00  0.00    +0.330 C 
ATOM      7  O   UNL     1     -12.050  16.116  69.117  0.00  0.00    -0.250 OA
ENDROOT
BRANCH   4   8
ATOM      8  C   UNL     1      -9.156  17.956  66.549  0.00  0.00    +0.006 A 
ATOM      9  C   UNL     1      -8.134  18.703  67.127  0.00  0.00    -0.002 A 
ATOM     10  C   UNL     1      -8.438  19.994  67.527  0.00  0.00    -0.000 A 
ATOM     11  C   UNL     1      -9.711  20.490  67.300  0.00  0.00    -0.000 A 
ATOM     12  C   UNL     1     -10.416  19.916  66.258  0.00  0.00    -0.000 A 
ATOM     13  C   UNL     1     -10.323  18.528  66.222  0.00  0.00    -0.002 A 
ENDBRANCH   4   8
BRANCH   1  15
ATOM     14  C   UNL     1     -11.828  13.288  66.995  0.00  0.00    +0.024 C 
ATOM     15  C   UNL     1     -12.037  14.068  66.807  0.00  0.00    +0.103 C 
ENDBRANCH   1  15
TORSDOF 2
ENDMDL
MODEL 6
REMARK VINA RESULT:      -5.2      3.627      5.257
REMARK  Name = 
REMARK  2 active torsions:
REMARK  status: ('A' for Active; 'I' for Inactive)
REMARK    1  A    between atoms: C_2  and  N_3
REMARK    2  A    between atoms: C_7  and  C_8
REMARK                            x       y       z     vdW  Elec       q    Type
REMARK                         _______ _______ _______ _____ _____    ______ ____
ROOT
ATOM      1  N   UNL     1     -10.116  17.910  67.660  0.00  0.00    -0.211 N 
ATOM      2  C   UNL     1     -10.662  16.629  68.018  0.00  0.00    +0.257 C 
ATOM      3  O   UNL     1     -10.526  16.235  69.220  0.00  0.00    -0.272 OA
ATOM      4  C   UNL     1      -9.797  15.663  67.023  0.00  0.00    +0.195 C 
ATOM      5  N   UNL     1      -9.945  16.635  65.774  0.00  0.00    -0.176 NA
ATOM      6  C   UNL     1     -10.268  17.885  66.247  0.00  0.00    +0.330 C 
ATOM      7  O   UNL     1     -10.598  18.839  65.477  0.00  0.00    -0.250 OA
ENDROOT
BRANCH   4   8
ATOM      8  C   UNL     1     -11.103  14.753  66.664  0.00  0.00    +0.006 A 
ATOM      9  C   UNL     1     -11.238  13.636  67.483  0.00  0.00    -0.002 A 
ATOM     10  C   UNL     1     -11.684  12.464  66.892  0.00  0.00    -0.000 A 
ATOM     11  C   UNL     1     -12.012  12.468  65.546  0.00  0.00    -0.000 A 
ATOM     12  C   UNL     1     -12.383  13.686  65.009  0.00  0.00    -0.000 A 
ATOM     13  C   UNL     1     -11.568  14.741  65.406  0.00  0.00    -0.002 A 
ENDBRANCH   4   8
BRANCH   1  15
ATOM     14  C   UNL     1      -9.149  19.388  68.637  0.00  0.00    +0.024 C 
ATOM     15  C   UNL     1      -9.903  19.084  68.475  0.00  0.00    +0.103 C 
ENDBRANCH   1  15
TORSDOF 2
ENDMDL
MODEL 7
REMARK VINA RESULT:      -5.0      2.500      3.850
REMARK  Name = 
REMARK  2 active torsions:
REMARK  status: ('A' for Active; 'I' for Inactive)
REMARK    1  A    between atoms: C_2  and  N_3
REMARK    2  A    between atoms: C_7  and  C_8
REMARK                            x       y       z     vdW  Elec       q    Type
REMARK                         _______ _______ _______ _____ _____    ______ ____
ROOT
ATOM      1  N   UNL     1     -11.059  12.750  64.725  0.00  0.00    -0.211 N 
ATOM      2  C   UNL     1     -10.474  12.832  66.036  0.00  0.00    +0.257 C 
ATOM      3  O   UNL     1      -9.603  11.963  66.359  0.00  0.00    -0.272 OA
ATOM      4  C   UNL     1     -11.811  12.637  66.956  0.00  0.00    +0.195 C 
ATOM      5  N   UNL     1     -12.699  13.606  66.062  0.00  0.00    -0.176 NA
ATOM      6  C   UNL     1     -12.099  13.713  64.831  0.00  0.00    +0.330 C 
ATOM      7  O   UNL     1     -12.495  14.538  63.950  0.00  0.00    -0.250 OA
ENDROOT
BRANCH   4   8
ATOM      8  C   UNL     1     -11.335  13.792  68.007  0.00  0.00    +0.006 A 
ATOM      9  C   UNL     1     -11.534  13.439  69.339  0.00  0.00    -0.002 A 
ATOM     10  C   UNL     1     -11.954  14.436  70.205  0.00  0.00    -0.000 A 
ATOM     11  C   UNL     1     -12.114  15.726  69.724  0.00  0.00    -0.000 A 
ATOM     12  C   UNL     1     -11.370  16.061  68.609  0.00  0.00    -0.000 A 
ATOM     13  C   UNL     1     -11.365  15.076  67.626  0.00  0.00    -0.002 A 
ENDBRANCH   4   8
BRANCH   1  15
ATOM     14  C   UNL     1     -10.728  11.482  63.190  0.00  0.00    +0.024 C 
ATOM     15  C   UNL     1     -10.508  12.219  63.499  0.00  0.00    +0.103 C 
ENDBRANCH   1  15
TORSDOF 2
ENDMDL
MODEL 8
REMARK VINA RESULT:      -5.0      1.770      5.334
REMARK  Name = 
REMARK  2 active torsions:
REMARK  status: ('A' for Active; 'I' for Inactive)
REMARK    1  A    between atoms: C_2  and  N_3
REMARK    2  A    between atoms: C_7  and  C_8
REMARK                            x       y       z     vdW  Elec       q    Type
REMARK                         _______ _______ _______ _____ _____    ______ ____
ROOT
ATOM      1  N   UNL     1     -11.344  15.152  70.031  0.00  0.00    -0.211 N 
ATOM      2  C   UNL     1     -11.863  13.961  69.416  0.00  0.00    +0.257 C 
ATOM      3  O   UNL     1     -12.111  12.960  70.161  0.00  0.00    -0.272 OA
ATOM      4  C   UNL     1     -10.629  13.601  68.406  0.00  0.00    +0.195 C 
ATOM      5  N   UNL     1     -10.429  15.107  67.941  0.00  0.00    -0.176 NA
ATOM      6  C   UNL     1     -11.002  15.923  68.886  0.00  0.00    +0.330 C 
ATOM      7  O   UNL     1     -11.133  17.174  68.717  0.00  0.00    -0.250 OA
ENDROOT
BRANCH   4   8
ATOM      8  C   UNL     1     -11.649  13.202  67.196  0.00  0.00    +0.006 A 
ATOM      9  C   UNL     1     -11.340  11.986  66.594  0.00  0.00    -0.002 A 
ATOM     10  C   UNL     1     -11.501  11.897  65.220  0.00  0.00    -0.000 A 
ATOM     11  C   UNL     1     -11.994  12.989  64.525  0.00  0.00    -0.000 A 
ATOM     12  C   UNL     1     -12.774  13.874  65.247  0.00  0.00    -0.000 A 
ATOM     13  C   UNL     1     -12.256  14.175  66.503  0.00  0.00    -0.002 A 
ENDBRANCH   4   8
BRANCH   1  15
ATOM     14  C   UNL     1     -12.261  15.901  71.665  0.00  0.00    +0.024 C 
ATOM     15  C   UNL     1     -11.526  15.653  71.374  0.00  0.00    +0.103 C 
ENDBRANCH   1  15
TORSDOF 2
ENDMDL
MODEL 9
REMARK VINA RESULT:      -4.9      4.021      5.583
REMARK  Name = 
REMARK  2 active torsions:
REMARK  status: ('A' for Active; 'I' for Inactive)
REMARK    1  A    between atoms: C_2  and  N_3
REMARK    2  A    between atoms: C_7  and  C_8
REMARK                            x       y       z     vdW  Elec       q    Type
REMARK                         _______ _______ _______ _____ _____    ______ ____
ROOT
ATOM      1  N   UNL     1      -8.940  17.981  67.736  0.00  0.00    -0.211 N 
ATOM      2  C   UNL     1      -8.849  16.551  67.619  0.00  0.00    +0.257 C 
ATOM      3  O   UNL     1      -7.762  15.989  67.966  0.00  0.00    -0.272 OA
ATOM      4  C   UNL     1      -9.065  16.383  66.008  0.00  0.00    +0.195 C 
ATOM      5  N   UNL     1     -10.250  17.440  65.947  0.00  0.00    -0.176 NA
ATOM      6  C   UNL     1     -10.170  18.231  67.068  0.00  0.00    +0.330 C 
ATOM      7  O   UNL     1     -11.071  19.071  67.374  0.00  0.00    -0.250 OA
ENDROOT
BRANCH   4   8
ATOM      8  C   UNL     1     -10.030  15.082  66.206  0.00  0.00    +0.006 A 
ATOM      9  C   UNL     1     -10.260  14.382  65.025  0.00  0.00    -0.002 A 
ATOM     10  C   UNL     1     -11.530  13.864  64.830  0.00  0.00    -0.000 A 
ATOM     11  C   UNL     1     -12.486  14.026  65.819  0.00  0.00    -0.000 A 
ATOM     12  C   UNL     1     -12.012  14.202  67.107  0.00  0.00    -0.000 A 
ATOM     13  C   UNL     1     -10.941  15.086  67.189  0.00  0.00    -0.002 A 
ENDBRANCH   4   8
BRANCH   1  15
ATOM     14  C   UNL     1      -7.752  19.476  68.388  0.00  0.00    +0.024 C 
ATOM     15  C   UNL     1      -8.265  18.878  68.645  0.00  0.00    +0.103 C 
ENDBRANCH   1  15
TORSDOF 2
ENDMDL
