MODEL 1
REMARK VINA RESULT:      -4.5      0.000      0.000
REMARK  Name = 
REMARK  0 active torsions:
REMARK  status: ('A' for Active; 'I' for Inactive)
REMARK                            x       y       z     vdW  Elec       q    Type
REMARK                         _______ _______ _______ _____ _____    ______ ____
ROOT
ATOM      1  C   UNL     1     -10.112  17.223  66.295  0.00  0.00    +0.054 C 
ATOM      2  C   UNL     1     -10.415  15.845  65.813  0.00  0.00    +0.080 A 
ATOM      3  N   UNL     1     -10.137  14.835  66.673  0.00  0.00    -0.325 N 
ATOM      4  C   UNL     1     -10.101  15.051  68.118  0.00  0.00    +0.130 C 
ATOM      5  C   UNL     1     -10.121  13.588  66.145  0.00  0.00    +0.079 A 
ATOM      6  C   UNL     1     -10.881  13.284  65.025  0.00  0.00    +0.064 A 
ATOM      7  C   UNL     1     -11.574  14.292  64.371  0.00  0.00    +0.237 A 
ATOM      8  O   UNL     1     -12.623  14.109  63.728  0.00  0.00    -0.283 OA
ATOM      9  C   UNL     1     -11.251  15.594  64.736  0.00  0.00    +0.246 A 
ATOM     10  O   UNL     1     -11.602  16.675  63.953  0.00  0.00    -0.282 OA
ENDROOT
TORSDOF 0
ENDMDL
MODEL 2
REMARK VINA RESULT:      -4.5      1.379      2.016
REMARK  Name = 
REMARK  0 active torsions:
REMARK  status: ('A' for Active; 'I' for Inactive)
REMARK                            x       y       z     vdW  Elec       q    Type
REMARK                         _______ _______ _______ _____ _____    ______ ____
ROOT
ATOM      1  C   UNL     1      -9.540  15.435  68.035  0.00  0.00    +0.054 C 
ATOM      2  C   UNL     1     -10.390  15.155  66.844  0.00  0.00    +0.080 A 
ATOM      3  N   UNL     1     -11.407  14.277  67.027  0.00  0.00    -0.325 N 
ATOM      4  C   UNL     1     -12.001  14.061  68.345  0.00  0.00    +0.130 C 
ATOM      5  C   UNL     1     -11.986  13.791  65.904  0.00  0.00    +0.079 A 
ATOM      6  C   UNL     1     -11.980  14.529  64.728  0.00  0.00    +0.064 A 
ATOM      7  C   UNL     1     -11.277  15.722  64.670  0.00  0.00    +0.237 A 
ATOM      8  O   UNL     1     -11.581  16.672  63.926  0.00  0.00    -0.283 OA
ATOM      9  C   UNL     1     -10.408  15.974  65.725  0.00  0.00    +0.246 A 
ATOM     10  O   UNL     1      -9.418  16.932  65.638  0.00  0.00    -0.282 OA
ENDROOT
TORSDOF 0
ENDMDL
MODEL 3
REMARK VINA RESULT:      -4.4      5.313      6.730
REMARK  Name = 
REMARK  0 active torsions:
REMARK  status: ('A' for Active; 'I' for Inactive)
REMARK                            x       y       z     vdW  Elec       q    Type
REMARK                         _______ _______ _______ _____ _____    ______ ____
ROOT
ATOM      1  C   UNL     1     -12.447  11.581  70.876  0.00  0.00    +0.054 C 
ATOM      2  C   UNL     1     -12.472  13.071  70.854  0.00  0.00    +0.080 A 
ATOM      3  N   UNL     1     -11.873  13.664  69.792  0.00  0.00    -0.325 N 
ATOM      4  C   UNL     1     -11.732  12.973  68.511  0.00  0.00    +0.130 C 
ATOM      5  C   UNL     1     -11.624  14.990  69.909  0.00  0.00    +0.079 A 
ATOM      6  C   UNL     1     -12.410  15.788  70.730  0.00  0.00    +0.064 A 
ATOM      7  C   UNL     1     -13.385  15.204  71.524  0.00  0.00    +0.237 A 
ATOM      8  O   UNL     1     -14.427  15.783  71.883  0.00  0.00    -0.283 OA
ATOM      9  C   UNL     1     -13.338  13.819  71.636  0.00  0.00    +0.246 A 
ATOM     10  O   UNL     1     -14.014  13.148  72.634  0.00  0.00    -0.282 OA
ENDROOT
TORSDOF 0
ENDMDL
MODEL 4
REMARK VINA RESULT:      -4.4      2.899      3.273
REMARK  Name = 
REMARK  0 active torsions:
REMARK  status: ('A' for Active; 'I' for Inactive)
REMARK                            x       y       z     vdW  Elec       q    Type
REMARK                         _______ _______ _______ _____ _____    ______ ____
ROOT
ATOM      1  C   UNL     1     -11.981  13.248  67.661  0.00  0.00    +0.054 C 
ATOM      2  C   UNL     1     -11.666  12.602  66.356  0.00  0.00    +0.080 A 
ATOM      3  N   UNL     1     -10.929  11.465  66.412  0.00  0.00    -0.325 N 
ATOM      4  C   UNL     1     -10.926  10.617  67.602  0.00  0.00    +0.130 C 
ATOM      5  C   UNL     1     -10.388  11.046  65.245  0.00  0.00    +0.079 A 
ATOM      6  C   UNL     1     -10.986  11.361  64.032  0.00  0.00    +0.064 A 
ATOM      7  C   UNL     1     -12.083  12.209  64.009  0.00  0.00    +0.237 A 
ATOM      8  O   UNL     1     -12.972  12.172  63.139  0.00  0.00    -0.283 OA
ATOM      9  C   UNL     1     -12.353  12.895  65.188  0.00  0.00    +0.246 A 
ATOM     10  O   UNL     1     -13.182  13.998  65.212  0.00  0.00    -0.282 OA
ENDROOT
TORSDOF 0
ENDMDL
MODEL 5
REMARK VINA RESULT:      -4.4      1.634      2.283
REMARK  Name = 
REMARK  0 active torsions:
REMARK  status: ('A' for Active; 'I' for Inactive)
REMARK                            x       y       z     vdW  Elec       q    Type
REMARK                         _______ _______ _______ _____ _____    ______ ____
ROOT
ATOM      1  C   UNL     1     -10.426  15.177  65.640  0.00  0.00    +0.054 C 
ATOM      2  C   UNL     1     -10.691  13.870  64.976  0.00  0.00    +0.080 A 
ATOM      3  N   UNL     1      -9.942  12.821  65.397  0.00  0.00    -0.325 N 
ATOM      4  C   UNL     1      -9.358  12.790  66.736  0.00  0.00    +0.130 C 
ATOM      5  C   UNL     1      -9.957  11.721  64.608  0.00  0.00    +0.079 A 
ATOM      6  C   UNL     1     -11.052  11.443  63.800  0.00  0.00    +0.064 A 
ATOM      7  C   UNL     1     -12.090  12.357  63.714  0.00  0.00    +0.237 A 
ATOM      8  O   UNL     1     -13.270  12.048  63.471  0.00  0.00    -0.283 OA
ATOM      9  C   UNL     1     -11.844  13.617  64.248  0.00  0.00    +0.246 A 
ATOM     10  O   UNL     1     -12.637  14.704  63.940  0.00  0.00    -0.282 OA
ENDROOT
TORSDOF 0
ENDMDL
MODEL 6
REMARK VINA RESULT:      -4.3      1.630      3.324
REMARK  Name = 
REMARK  0 active torsions:
REMARK  status: ('A' for Active; 'I' for Inactive)
REMARK                            x       y       z     vdW  Elec       q    Type
REMARK                         _______ _______ _______ _____ _____    ______ ____
ROOT
ATOM      1  C   UNL     1     -12.438  12.187  63.543  0.00  0.00    +0.054 C 
ATOM      2  C   UNL     1     -11.578  13.002  64.446  0.00  0.00    +0.080 A 
ATOM      3  N   UNL     1     -10.482  12.383  64.950  0.00  0.00    -0.325 N 
ATOM      4  C   UNL     1      -9.856  11.256  64.259  0.00  0.00    +0.130 C 
ATOM      5  C   UNL     1      -9.872  12.999  65.990  0.00  0.00    +0.079 A 
ATOM      6  C   UNL     1      -9.959  14.376  66.147  0.00  0.00    +0.064 A 
ATOM      7  C   UNL     1     -10.770  15.113  65.298  0.00  0.00    +0.237 A 
ATOM      8  O   UNL     1     -10.563  16.303  65.000  0.00  0.00    -0.283 OA
ATOM      9  C   UNL     1     -11.648  14.386  64.503  0.00  0.00    +0.246 A 
ATOM     10  O   UNL     1     -12.723  14.981  63.875  0.00  0.00    -0.282 OA
ENDROOT
TORSDOF 0
ENDMDL
MODEL 7
REMARK VINA RESULT:      -4.2      0.937      2.688
REMARK  Name = 
REMARK  0 active torsions:
REMARK  status: ('A' for Active; 'I' for Inactive)
REMARK                            x       y       z     vdW  Elec       q    Type
REMARK                         _______ _______ _______ _____ _____    ______ ____
ROOT
ATOM      1  C   UNL     1     -11.494  12.326  65.987  0.00  0.00    +0.054 C 
ATOM      2  C   UNL     1     -11.128  13.769  65.928  0.00  0.00    +0.080 A 
ATOM      3  N   UNL     1      -9.990  14.126  66.572  0.00  0.00    -0.325 N 
ATOM      4  C   UNL     1      -8.912  13.166  66.804  0.00  0.00    +0.130 C 
ATOM      5  C   UNL     1      -9.811  15.451  66.781  0.00  0.00    +0.079 A 
ATOM      6  C   UNL     1     -10.385  16.386  65.931  0.00  0.00    +0.064 A 
ATOM      7  C   UNL     1     -11.242  15.964  64.925  0.00  0.00    +0.237 A 
ATOM      8  O   UNL     1     -11.404  16.571  63.851  0.00  0.00    -0.283 OA
ATOM      9  C   UNL     1     -11.672  14.645  65.000  0.00  0.00    +0.246 A 
ATOM     10  O   UNL     1     -12.763  14.195  64.283  0.00  0.00    -0.282 OA
ENDROOT
TORSDOF 0
ENDMDL
MODEL 8
REMARK VINA RESULT:      -4.2      2.804      3.905
REMARK  Name = 
REMARK  0 active torsions:
REMARK  status: ('A' for Active; 'I' for Inactive)
REMARK                            x       y       z     vdW  Elec       q    Type
REMARK                         _______ _______ _______ _____ _____    ______ ____
ROOT
ATOM      1  C   UNL     1     -12.198  12.150  63.472  0.00  0.00    +0.054 C 
ATOM      2  C   UNL     1     -11.906  12.248  64.930  0.00  0.00    +0.080 A 
ATOM      3  N   UNL     1     -10.930  11.434  65.402  0.00  0.00    -0.325 N 
ATOM      4  C   UNL     1      -9.865  10.937  64.532  0.00  0.00    +0.130 C 
ATOM      5  C   UNL     1     -10.866  11.295  66.747  0.00  0.00    +0.079 A 
ATOM      6  C   UNL     1     -11.319  12.303  67.586  0.00  0.00    +0.064 A 
ATOM      7  C   UNL     1     -11.947  13.415  67.045  0.00  0.00    +0.237 A 
ATOM      8  O   UNL     1     -11.937  14.543  67.570  0.00  0.00    -0.283 OA
ATOM      9  C   UNL     1     -12.312  13.322  65.707  0.00  0.00    +0.246 A 
ATOM     10  O   UNL     1     -13.223  14.192  65.141  0.00  0.00    -0.282 OA
ENDROOT
TORSDOF 0
ENDMDL
MODEL 9
REMARK VINA RESULT:      -4.1      4.041      4.952
REMARK  Name = 
REMARK  0 active torsions:
REMARK  status: ('A' for Active; 'I' for Inactive)
REMARK                            x       y       z     vdW  Elec       q    Type
REMARK                         _______ _______ _______ _____ _____    ______ ____
ROOT
ATOM      1  C   UNL     1     -12.380  15.860  71.826  0.00  0.00    +0.054 C 
ATOM      2  C   UNL     1     -12.171  14.806  70.794  0.00  0.00    +0.080 A 
ATOM      3  N   UNL     1     -12.542  13.549  71.138  0.00  0.00    -0.325 N 
ATOM      4  C   UNL     1     -13.567  13.306  72.151  0.00  0.00    +0.130 C 
ATOM      5  C   UNL     1     -12.085  12.552  70.343  0.00  0.00    +0.079 A 
ATOM      6  C   UNL     1     -11.791  12.790  69.007  0.00  0.00    +0.064 A 
ATOM      7  C   UNL     1     -11.855  14.083  68.511  0.00  0.00    +0.237 A 
ATOM      8  O   UNL     1     -12.111  14.360  67.325  0.00  0.00    -0.283 OA
ATOM      9  C   UNL     1     -11.963  15.098  69.454  0.00  0.00    +0.246 A 
ATOM     10  O   UNL     1     -11.701  16.416  69.137  0.00  0.00    -0.282 OA
ENDROOT
TORSDOF 0
ENDMDL
