MODEL 1
REMARK VINA RESULT:      -4.9      0.000      0.000
REMARK  Name = 
REMARK  33 active torsions:
REMARK  status: ('A' for Active; 'I' for Inactive)
REMARK    1  A    between atoms: C_2  and  C_3
REMARK    2  A    between atoms: C_3  and  C_4
REMARK    3  A    between atoms: C_4  and  N_5
REMARK    4  A    between atoms: N_5  and  C_6
REMARK    5  A    between atoms: C_9  and  C_10
REMARK    6  A    between atoms: C_10  and  O_12
REMARK    7  A    between atoms: O_12  and  C_13
REMARK    8  A    between atoms: C_13  and  C_14
REMARK    9  A    between atoms: C_14  and  O_15
REMARK   10  A    between atoms: O_15  and  C_16
REMARK   11  A    between atoms: C_16  and  C_17
REMARK   12  A    between atoms: C_17  and  O_18
REMARK   13  A    between atoms: O_18  and  C_19
REMARK   14  A    between atoms: C_19  and  C_20
REMARK   15  A    between atoms: C_20  and  O_21
REMARK   16  A    between atoms: O_21  and  C_22
REMARK   17  A    between atoms: C_22  and  C_23
REMARK   18  A    between atoms: C_23  and  O_24
REMARK   19  A    between atoms: O_24  and  C_25
REMARK   20  A    between atoms: C_25  and  C_26
REMARK   21  A    between atoms: C_26  and  O_27
REMARK   22  A    between atoms: O_27  and  C_28
REMARK   23  A    between atoms: C_28  and  C_29
REMARK   24  A    between atoms: C_29  and  O_30
REMARK   25  A    between atoms: O_30  and  C_31
REMARK   26  A    between atoms: C_31  and  C_32
REMARK   27  A    between atoms: C_32  and  O_33
REMARK   28  A    between atoms: O_33  and  C_34
REMARK   29  A    between atoms: C_34  and  C_35
REMARK   30  A    between atoms: C_35  and  O_36
REMARK   31  A    between atoms: O_36  and  C_37
REMARK   32  A    between atoms: C_37  and  C_38
REMARK   33  A    between atoms: C_38  and  O_39
REMARK                            x       y       z     vdW  Elec       q    Type
REMARK                         _______ _______ _______ _____ _____    ______ ____
ROOT
ATOM      1  C   UNL     1     -12.793  13.927  65.088  0.00  0.00    +0.174 C 
ENDROOT
BRANCH   1   2
ATOM      2  O   UNL     1     -12.647  12.665  64.536  0.00  0.00    -0.348 OA
BRANCH   2   3
ATOM      3  C   UNL     1     -11.696  12.675  63.509  0.00  0.00    +0.174 C 
BRANCH   3   4
ATOM      4  C   UNL     1     -10.890  11.400  63.653  0.00  0.00    +0.174 C 
BRANCH   4   5
ATOM      5  O   UNL     1     -10.703  11.100  65.011  0.00  0.00    -0.347 OA
BRANCH   5   6
ATOM      6  C   UNL     1     -10.004   9.891  65.107  0.00  0.00    +0.190 C 
BRANCH   6   7
ATOM      7  C   UNL     1      -9.355   9.859  66.477  0.00  0.00    +0.241 C 
BRANCH   7   8
ATOM      8  O   UNL     1     -10.273  10.433  67.393  0.00  0.00    -0.443 OA
BRANCH   8   9
ATOM      9  C   UNL     1     -10.440   9.969  68.692  0.00  0.00    +0.341 C 
ATOM     10  O   UNL     1     -10.667   8.729  68.842  0.00  0.00    -0.245 OA
BRANCH   9  14
ATOM     11  C   UNL     1     -12.925  12.270  71.180  0.00  0.00    +0.065 A 
ATOM     12  C   UNL     1     -12.840  10.889  71.301  0.00  0.00    +0.016 A 
ATOM     13  C   UNL     1     -11.809  10.202  70.670  0.00  0.00    +0.008 A 
ATOM     14  C   UNL     1     -10.983  10.833  69.748  0.00  0.00    +0.076 A 
ATOM     15  C   UNL     1     -11.399  12.091  69.333  0.00  0.00    +0.008 A 
ATOM     16  C   UNL     1     -12.271  12.841  70.103  0.00  0.00    +0.016 A 
BRANCH  11  17
ATOM     17  N   UNL     1     -13.294  13.082  72.301  0.00  0.00    -0.238 NA
BRANCH  17  18
ATOM     18  C   UNL     1     -14.335  14.061  72.099  0.00  0.00    +0.112 C 
BRANCH  18  19
ATOM     19  C   UNL     1     -13.920  15.454  72.500  0.00  0.00    +0.023 C 
BRANCH  19  21
ATOM     20  C   UNL     1     -11.689  16.171  71.598  0.00  0.00    +0.000 C 
ATOM     21  C   UNL     1     -12.417  15.447  72.697  0.00  0.00    +0.002 C 
ENDBRANCH  19  21
ENDBRANCH  18  19
ENDBRANCH  17  18
ENDBRANCH  11  17
ENDBRANCH   9  14
ENDBRANCH   8   9
ENDBRANCH   7   8
ENDBRANCH   6   7
ENDBRANCH   5   6
ENDBRANCH   4   5
ENDBRANCH   3   4
ENDBRANCH   2   3
ENDBRANCH   1   2
BRANCH   1  22
ATOM     22  C   UNL     1     -12.023  14.112  66.368  0.00  0.00    +0.174 C 
BRANCH  22  23
ATOM     23  O   UNL     1     -10.989  15.036  66.171  0.00  0.00    -0.348 OA
BRANCH  23  24
ATOM     24  C   UNL     1      -9.799  14.341  66.441  0.00  0.00    +0.174 C 
BRANCH  24  25
ATOM     25  C   UNL     1      -8.787  15.250  67.117  0.00  0.00    +0.174 C 
BRANCH  25  26
ATOM     26  O   UNL     1      -8.017  14.554  68.033  0.00  0.00    -0.348 OA
BRANCH  26  27
ATOM     27  C   UNL     1      -6.680  14.697  67.696  0.00  0.00    +0.174 C 
BRANCH  27  28
ATOM     28  C   UNL     1      -6.313  16.107  67.324  0.00  0.00    +0.174 C 
BRANCH  28  29
ATOM     29  O   UNL     1      -5.040  16.107  66.737  0.00  0.00    -0.348 OA
BRANCH  29  30
ATOM     30  C   UNL     1      -4.799  17.383  66.228  0.00  0.00    +0.174 C 
BRANCH  30  31
ATOM     31  C   UNL     1      -6.107  17.941  65.716  0.00  0.00    +0.174 C 
BRANCH  31  32
ATOM     32  O   UNL     1      -5.892  18.827  64.660  0.00  0.00    -0.348 OA
BRANCH  32  33
ATOM     33  C   UNL     1      -6.374  20.092  64.964  0.00  0.00    +0.174 C 
BRANCH  33  34
ATOM     34  C   UNL     1      -5.623  20.738  66.093  0.00  0.00    +0.174 C 
BRANCH  34  35
ATOM     35  O   UNL     1      -6.446  21.560  66.853  0.00  0.00    -0.348 OA
BRANCH  35  36
ATOM     36  C   UNL     1      -7.407  20.852  67.566  0.00  0.00    +0.174 C 
BRANCH  36  37
ATOM     37  C   UNL     1      -6.743  19.995  68.621  0.00  0.00    +0.174 C 
BRANCH  37  38
ATOM     38  O   UNL     1      -7.579  18.920  68.893  0.00  0.00    -0.348 OA
BRANCH  38  39
ATOM     39  C   UNL     1      -8.747  19.072  68.152  0.00  0.00    +0.174 C 
BRANCH  39  40
ATOM     40  C   UNL     1      -9.899  18.321  68.800  0.00  0.00    +0.174 C 
BRANCH  40  41
ATOM     41  O   UNL     1     -10.865  18.138  67.812  0.00  0.00    -0.348 OA
ATOM     42  C   UNL     1     -10.539  18.981  66.761  0.00  0.00    +0.174 C 
ENDBRANCH  40  41
ENDBRANCH  39  40
ENDBRANCH  38  39
ENDBRANCH  37  38
ENDBRANCH  36  37
ENDBRANCH  35  36
ENDBRANCH  34  35
ENDBRANCH  33  34
ENDBRANCH  32  33
ENDBRANCH  31  32
ENDBRANCH  30  31
ENDBRANCH  29  30
ENDBRANCH  28  29
ENDBRANCH  27  28
ENDBRANCH  26  27
ENDBRANCH  25  26
ENDBRANCH  24  25
ENDBRANCH  23  24
ENDBRANCH  22  23
ENDBRANCH   1  22
TORSDOF 33
ENDMDL
MODEL 2
REMARK VINA RESULT:      -4.9      2.085      4.432
REMARK  Name = 
REMARK  33 active torsions:
REMARK  status: ('A' for Active; 'I' for Inactive)
REMARK    1  A    between atoms: C_2  and  C_3
REMARK    2  A    between atoms: C_3  and  C_4
REMARK    3  A    between atoms: C_4  and  N_5
REMARK    4  A    between atoms: N_5  and  C_6
REMARK    5  A    between atoms: C_9  and  C_10
REMARK    6  A    between atoms: C_10  and  O_12
REMARK    7  A    between atoms: O_12  and  C_13
REMARK    8  A    between atoms: C_13  and  C_14
REMARK    9  A    between atoms: C_14  and  O_15
REMARK   10  A    between atoms: O_15  and  C_16
REMARK   11  A    between atoms: C_16  and  C_17
REMARK   12  A    between atoms: C_17  and  O_18
REMARK   13  A    between atoms: O_18  and  C_19
REMARK   14  A    between atoms: C_19  and  C_20
REMARK   15  A    between atoms: C_20  and  O_21
REMARK   16  A    between atoms: O_21  and  C_22
REMARK   17  A    between atoms: C_22  and  C_23
REMARK   18  A    between atoms: C_23  and  O_24
REMARK   19  A    between atoms: O_24  and  C_25
REMARK   20  A    between atoms: C_25  and  C_26
REMARK   21  A    between atoms: C_26  and  O_27
REMARK   22  A    between atoms: O_27  and  C_28
REMARK   23  A    between atoms: C_28  and  C_29
REMARK   24  A    between atoms: C_29  and  O_30
REMARK   25  A    between atoms: O_30  and  C_31
REMARK   26  A    between atoms: C_31  and  C_32
REMARK   27  A    between atoms: C_32  and  O_33
REMARK   28  A    between atoms: O_33  and  C_34
REMARK   29  A    between atoms: C_34  and  C_35
REMARK   30  A    between atoms: C_35  and  O_36
REMARK   31  A    between atoms: O_36  and  C_37
REMARK   32  A    between atoms: C_37  and  C_38
REMARK   33  A    between atoms: C_38  and  O_39
REMARK                            x       y       z     vdW  Elec       q    Type
REMARK                         _______ _______ _______ _____ _____    ______ ____
ROOT
ATOM      1  C   UNL     1     -10.505  17.067  65.800  0.00  0.00    +0.174 C 
ENDROOT
BRANCH   1   2
ATOM      2  O   UNL     1     -11.114  17.025  64.558  0.00  0.00    -0.348 OA
BRANCH   2   3
ATOM      3  C   UNL     1     -11.551  15.730  64.258  0.00  0.00    +0.174 C 
BRANCH   3   4
ATOM      4  C   UNL     1     -10.733  14.786  65.115  0.00  0.00    +0.174 C 
BRANCH   4   5
ATOM      5  O   UNL     1     -10.430  13.621  64.393  0.00  0.00    -0.347 OA
BRANCH   5   6
ATOM      6  C   UNL     1     -11.274  12.594  64.832  0.00  0.00    +0.190 C 
BRANCH   6   7
ATOM      7  C   UNL     1     -10.436  11.332  64.910  0.00  0.00    +0.241 C 
BRANCH   7   8
ATOM      8  O   UNL     1      -9.709  11.383  66.127  0.00  0.00    -0.443 OA
BRANCH   8   9
ATOM      9  C   UNL     1     -10.298  11.210  67.373  0.00  0.00    +0.341 C 
ATOM     10  O   UNL     1     -11.178  10.302  67.479  0.00  0.00    -0.245 OA
BRANCH   9  14
ATOM     11  C   UNL     1     -10.956  14.960  69.152  0.00  0.00    +0.065 A 
ATOM     12  C   UNL     1     -12.003  14.109  68.821  0.00  0.00    +0.016 A 
ATOM     13  C   UNL     1     -11.742  12.780  68.509  0.00  0.00    +0.008 A 
ATOM     14  C   UNL     1     -10.442  12.330  68.312  0.00  0.00    +0.076 A 
ATOM     15  C   UNL     1      -9.473  13.320  68.212  0.00  0.00    +0.008 A 
ATOM     16  C   UNL     1      -9.693  14.584  68.730  0.00  0.00    +0.016 A 
BRANCH  11  17
ATOM     17  N   UNL     1     -11.099  15.923  70.202  0.00  0.00    -0.238 NA
BRANCH  17  18
ATOM     18  C   UNL     1     -12.277  15.834  71.030  0.00  0.00    +0.112 C 
BRANCH  18  19
ATOM     19  C   UNL     1     -12.013  16.189  72.472  0.00  0.00    +0.023 C 
BRANCH  19  21
ATOM     20  C   UNL     1     -13.476  14.152  72.592  0.00  0.00    +0.000 C 
ATOM     21  C   UNL     1     -12.507  15.038  73.326  0.00  0.00    +0.002 C 
ENDBRANCH  19  21
ENDBRANCH  18  19
ENDBRANCH  17  18
ENDBRANCH  11  17
ENDBRANCH   9  14
ENDBRANCH   8   9
ENDBRANCH   7   8
ENDBRANCH   6   7
ENDBRANCH   5   6
ENDBRANCH   4   5
ENDBRANCH   3   4
ENDBRANCH   2   3
ENDBRANCH   1   2
BRANCH   1  22
ATOM     22  C   UNL     1     -10.317  18.465  66.326  0.00  0.00    +0.174 C 
BRANCH  22  23
ATOM     23  O   UNL     1     -10.715  18.525  67.668  0.00  0.00    -0.348 OA
BRANCH  23  24
ATOM     24  C   UNL     1      -9.828  19.420  68.289  0.00  0.00    +0.174 C 
BRANCH  24  25
ATOM     25  C   UNL     1      -8.819  19.957  67.289  0.00  0.00    +0.174 C 
BRANCH  25  26
ATOM     26  O   UNL     1      -7.611  20.249  67.900  0.00  0.00    -0.348 OA
BRANCH  26  27
ATOM     27  C   UNL     1      -7.461  19.434  69.011  0.00  0.00    +0.174 C 
BRANCH  27  28
ATOM     28  C   UNL     1      -6.267  19.797  69.851  0.00  0.00    +0.174 C 
BRANCH  28  29
ATOM     29  O   UNL     1      -5.229  18.895  69.579  0.00  0.00    -0.348 OA
BRANCH  29  30
ATOM     30  C   UNL     1      -5.366  17.806  70.439  0.00  0.00    +0.174 C 
BRANCH  30  31
ATOM     31  C   UNL     1      -5.007  16.553  69.673  0.00  0.00    +0.174 C 
BRANCH  31  32
ATOM     32  O   UNL     1      -6.141  15.968  69.110  0.00  0.00    -0.348 OA
BRANCH  32  33
ATOM     33  C   UNL     1      -5.972  15.758  67.749  0.00  0.00    +0.174 C 
BRANCH  33  34
ATOM     34  C   UNL     1      -6.984  16.500  66.922  0.00  0.00    +0.174 C 
BRANCH  34  35
ATOM     35  O   UNL     1      -6.392  17.147  65.845  0.00  0.00    -0.348 OA
BRANCH  35  36
ATOM     36  C   UNL     1      -5.402  18.043  66.231  0.00  0.00    +0.174 C 
BRANCH  36  37
ATOM     37  C   UNL     1      -5.444  19.274  65.350  0.00  0.00    +0.174 C 
BRANCH  37  38
ATOM     38  O   UNL     1      -6.082  18.935  64.165  0.00  0.00    -0.348 OA
BRANCH  38  39
ATOM     39  C   UNL     1      -5.151  18.991  63.132  0.00  0.00    +0.174 C 
BRANCH  39  40
ATOM     40  C   UNL     1      -5.648  19.884  62.006  0.00  0.00    +0.174 C 
BRANCH  40  41
ATOM     41  O   UNL     1      -5.039  19.431  60.836  0.00  0.00    -0.348 OA
ATOM     42  C   UNL     1      -5.743  19.974  59.773  0.00  0.00    +0.174 C 
ENDBRANCH  40  41
ENDBRANCH  39  40
ENDBRANCH  38  39
ENDBRANCH  37  38
ENDBRANCH  36  37
ENDBRANCH  35  36
ENDBRANCH  34  35
ENDBRANCH  33  34
ENDBRANCH  32  33
ENDBRANCH  31  32
ENDBRANCH  30  31
ENDBRANCH  29  30
ENDBRANCH  28  29
ENDBRANCH  27  28
ENDBRANCH  26  27
ENDBRANCH  25  26
ENDBRANCH  24  25
ENDBRANCH  23  24
ENDBRANCH  22  23
ENDBRANCH   1  22
TORSDOF 33
ENDMDL
MODEL 3
REMARK VINA RESULT:      -4.9      3.125      6.769
REMARK  Name = 
REMARK  33 active torsions:
REMARK  status: ('A' for Active; 'I' for Inactive)
REMARK    1  A    between atoms: C_2  and  C_3
REMARK    2  A    between atoms: C_3  and  C_4
REMARK    3  A    between atoms: C_4  and  N_5
REMARK    4  A    between atoms: N_5  and  C_6
REMARK    5  A    between atoms: C_9  and  C_10
REMARK    6  A    between atoms: C_10  and  O_12
REMARK    7  A    between atoms: O_12  and  C_13
REMARK    8  A    between atoms: C_13  and  C_14
REMARK    9  A    between atoms: C_14  and  O_15
REMARK   10  A    between atoms: O_15  and  C_16
REMARK   11  A    between atoms: C_16  and  C_17
REMARK   12  A    between atoms: C_17  and  O_18
REMARK   13  A    between atoms: O_18  and  C_19
REMARK   14  A    between atoms: C_19  and  C_20
REMARK   15  A    between atoms: C_20  and  O_21
REMARK   16  A    between atoms: O_21  and  C_22
REMARK   17  A    between atoms: C_22  and  C_23
REMARK   18  A    between atoms: C_23  and  O_24
REMARK   19  A    between atoms: O_24  and  C_25
REMARK   20  A    between atoms: C_25  and  C_26
REMARK   21  A    between atoms: C_26  and  O_27
REMARK   22  A    between atoms: O_27  and  C_28
REMARK   23  A    between atoms: C_28  and  C_29
REMARK   24  A    between atoms: C_29  and  O_30
REMARK   25  A    between atoms: O_30  and  C_31
REMARK   26  A    between atoms: C_31  and  C_32
REMARK   27  A    between atoms: C_32  and  O_33
REMARK   28  A    between atoms: O_33  and  C_34
REMARK   29  A    between atoms: C_34  and  C_35
REMARK   30  A    between atoms: C_35  and  O_36
REMARK   31  A    between atoms: O_36  and  C_37
REMARK   32  A    between atoms: C_37  and  C_38
REMARK   33  A    between atoms: C_38  and  O_39
REMARK                            x       y       z     vdW  Elec       q    Type
REMARK                         _______ _______ _______ _____ _____    ______ ____
ROOT
ATOM      1  C   UNL     1     -11.478  15.868  69.679  0.00  0.00    +0.174 C 
ENDROOT
BRANCH   1   2
ATOM      2  O   UNL     1     -12.750  16.066  70.187  0.00  0.00    -0.348 OA
BRANCH   2   3
ATOM      3  C   UNL     1     -12.833  15.630  71.515  0.00  0.00    +0.174 C 
BRANCH   3   4
ATOM      4  C   UNL     1     -14.244  15.116  71.716  0.00  0.00    +0.174 C 
BRANCH   4   5
ATOM      5  O   UNL     1     -14.215  13.891  72.401  0.00  0.00    -0.347 OA
BRANCH   5   6
ATOM      6  C   UNL     1     -13.233  13.081  71.819  0.00  0.00    +0.190 C 
BRANCH   6   7
ATOM      7  C   UNL     1     -13.599  11.643  72.134  0.00  0.00    +0.241 C 
BRANCH   7   8
ATOM      8  O   UNL     1     -12.736  10.812  71.375  0.00  0.00    -0.443 OA
BRANCH   8   9
ATOM      9  C   UNL     1     -12.884   9.433  71.296  0.00  0.00    +0.341 C 
ATOM     10  O   UNL     1     -13.973   8.939  71.721  0.00  0.00    -0.245 OA
BRANCH   9  14
ATOM     11  C   UNL     1      -9.588   7.146  72.547  0.00  0.00    +0.065 A 
ATOM     12  C   UNL     1     -10.895   6.711  72.727  0.00  0.00    +0.016 A 
ATOM     13  C   UNL     1     -11.933   7.344  72.052  0.00  0.00    +0.008 A 
ATOM     14  C   UNL     1     -11.724   8.534  71.366  0.00  0.00    +0.076 A 
ATOM     15  C   UNL     1     -10.504   9.154  71.598  0.00  0.00    +0.008 A 
ATOM     16  C   UNL     1      -9.421   8.436  72.075  0.00  0.00    +0.016 A 
BRANCH  11  17
ATOM     17  N   UNL     1      -8.511   6.207  72.449  0.00  0.00    -0.238 NA
BRANCH  17  18
ATOM     18  C   UNL     1      -8.731   5.023  71.655  0.00  0.00    +0.112 C 
BRANCH  18  19
ATOM     19  C   UNL     1      -8.690   5.292  70.171  0.00  0.00    +0.023 C 
BRANCH  19  21
ATOM     20  C   UNL     1     -10.847   5.813  68.995  0.00  0.00    +0.000 C 
ATOM     21  C   UNL     1      -9.966   4.737  69.569  0.00  0.00    +0.002 C 
ENDBRANCH  19  21
ENDBRANCH  18  19
ENDBRANCH  17  18
ENDBRANCH  11  17
ENDBRANCH   9  14
ENDBRANCH   8   9
ENDBRANCH   7   8
ENDBRANCH   6   7
ENDBRANCH   5   6
ENDBRANCH   4   5
ENDBRANCH   3   4
ENDBRANCH   2   3
ENDBRANCH   1   2
BRANCH   1  22
ATOM     22  C   UNL     1     -11.229  14.453  69.227  0.00  0.00    +0.174 C 
BRANCH  22  23
ATOM     23  O   UNL     1     -12.086  14.135  68.166  0.00  0.00    -0.348 OA
BRANCH  23  24
ATOM     24  C   UNL     1     -11.628  12.909  67.659  0.00  0.00    +0.174 C 
BRANCH  24  25
ATOM     25  C   UNL     1     -10.970  12.087  68.754  0.00  0.00    +0.174 C 
BRANCH  25  26
ATOM     26  O   UNL     1      -9.928  11.325  68.255  0.00  0.00    -0.348 OA
BRANCH  26  27
ATOM     27  C   UNL     1      -9.699  11.686  66.936  0.00  0.00    +0.174 C 
BRANCH  27  28
ATOM     28  C   UNL     1      -8.694  10.801  66.249  0.00  0.00    +0.174 C 
BRANCH  28  29
ATOM     29  O   UNL     1      -9.367   9.961  65.350  0.00  0.00    -0.348 OA
BRANCH  29  30
ATOM     30  C   UNL     1      -9.011  10.339  64.056  0.00  0.00    +0.174 C 
BRANCH  30  31
ATOM     31  C   UNL     1     -10.260  10.800  63.340  0.00  0.00    +0.174 C 
BRANCH  31  32
ATOM     32  O   UNL     1     -10.422  12.180  63.457  0.00  0.00    -0.348 OA
BRANCH  32  33
ATOM     33  C   UNL     1     -11.766  12.521  63.518  0.00  0.00    +0.174 C 
BRANCH  33  34
ATOM     34  C   UNL     1     -11.997  13.824  64.231  0.00  0.00    +0.174 C 
BRANCH  34  35
ATOM     35  O   UNL     1     -10.802  14.410  64.629  0.00  0.00    -0.348 OA
BRANCH  35  36
ATOM     36  C   UNL     1     -10.946  15.748  64.976  0.00  0.00    +0.174 C 
BRANCH  36  37
ATOM     37  C   UNL     1      -9.897  16.136  65.996  0.00  0.00    +0.174 C 
BRANCH  37  38
ATOM     38  O   UNL     1      -9.598  17.480  65.818  0.00  0.00    -0.348 OA
BRANCH  38  39
ATOM     39  C   UNL     1     -10.446  18.231  66.628  0.00  0.00    +0.174 C 
BRANCH  39  40
ATOM     40  C   UNL     1     -10.166  19.717  66.470  0.00  0.00    +0.174 C 
BRANCH  40  41
ATOM     41  O   UNL     1      -9.225  20.053  67.443  0.00  0.00    -0.348 OA
ATOM     42  C   UNL     1      -9.672  19.523  68.643  0.00  0.00    +0.174 C 
ENDBRANCH  40  41
ENDBRANCH  39  40
ENDBRANCH  38  39
ENDBRANCH  37  38
ENDBRANCH  36  37
ENDBRANCH  35  36
ENDBRANCH  34  35
ENDBRANCH  33  34
ENDBRANCH  32  33
ENDBRANCH  31  32
ENDBRANCH  30  31
ENDBRANCH  29  30
ENDBRANCH  28  29
ENDBRANCH  27  28
ENDBRANCH  26  27
ENDBRANCH  25  26
ENDBRANCH  24  25
ENDBRANCH  23  24
ENDBRANCH  22  23
ENDBRANCH   1  22
TORSDOF 33
ENDMDL
MODEL 4
REMARK VINA RESULT:      -4.7      3.780     10.138
REMARK  Name = 
REMARK  33 active torsions:
REMARK  status: ('A' for Active; 'I' for Inactive)
REMARK    1  A    between atoms: C_2  and  C_3
REMARK    2  A    between atoms: C_3  and  C_4
REMARK    3  A    between atoms: C_4  and  N_5
REMARK    4  A    between atoms: N_5  and  C_6
REMARK    5  A    between atoms: C_9  and  C_10
REMARK    6  A    between atoms: C_10  and  O_12
REMARK    7  A    between atoms: O_12  and  C_13
REMARK    8  A    between atoms: C_13  and  C_14
REMARK    9  A    between atoms: C_14  and  O_15
REMARK   10  A    between atoms: O_15  and  C_16
REMARK   11  A    between atoms: C_16  and  C_17
REMARK   12  A    between atoms: C_17  and  O_18
REMARK   13  A    between atoms: O_18  and  C_19
REMARK   14  A    between atoms: C_19  and  C_20
REMARK   15  A    between atoms: C_20  and  O_21
REMARK   16  A    between atoms: O_21  and  C_22
REMARK   17  A    between atoms: C_22  and  C_23
REMARK   18  A    between atoms: C_23  and  O_24
REMARK   19  A    between atoms: O_24  and  C_25
REMARK   20  A    between atoms: C_25  and  C_26
REMARK   21  A    between atoms: C_26  and  O_27
REMARK   22  A    between atoms: O_27  and  C_28
REMARK   23  A    between atoms: C_28  and  C_29
REMARK   24  A    between atoms: C_29  and  O_30
REMARK   25  A    between atoms: O_30  and  C_31
REMARK   26  A    between atoms: C_31  and  C_32
REMARK   27  A    between atoms: C_32  and  O_33
REMARK   28  A    between atoms: O_33  and  C_34
REMARK   29  A    between atoms: C_34  and  C_35
REMARK   30  A    between atoms: C_35  and  O_36
REMARK   31  A    between atoms: O_36  and  C_37
REMARK   32  A    between atoms: C_37  and  C_38
REMARK   33  A    between atoms: C_38  and  O_39
REMARK                            x       y       z     vdW  Elec       q    Type
REMARK                         _______ _______ _______ _____ _____    ______ ____
ROOT
ATOM      1  C   UNL     1     -12.828  12.035  71.266  0.00  0.00    +0.174 C 
ENDROOT
BRANCH   1   2
ATOM      2  O   UNL     1     -13.551  12.513  72.346  0.00  0.00    -0.348 OA
BRANCH   2   3
ATOM      3  C   UNL     1     -13.938  13.842  72.140  0.00  0.00    +0.174 C 
BRANCH   3   4
ATOM      4  C   UNL     1     -13.115  14.686  73.091  0.00  0.00    +0.174 C 
BRANCH   4   5
ATOM      5  O   UNL     1     -12.001  15.216  72.422  0.00  0.00    -0.347 OA
BRANCH   5   6
ATOM      6  C   UNL     1     -12.433  15.768  71.210  0.00  0.00    +0.190 C 
BRANCH   6   7
ATOM      7  C   UNL     1     -11.191  16.104  70.406  0.00  0.00    +0.241 C 
BRANCH   7   8
ATOM      8  O   UNL     1     -10.966  15.030  69.508  0.00  0.00    -0.443 OA
BRANCH   8   9
ATOM      9  C   UNL     1     -10.224  15.157  68.341  0.00  0.00    +0.341 C 
ATOM     10  O   UNL     1      -9.503  16.195  68.221  0.00  0.00    -0.245 OA
BRANCH   9  14
ATOM     11  C   UNL     1     -12.126  14.372  64.677  0.00  0.00    +0.065 A 
ATOM     12  C   UNL     1     -11.020  15.208  64.767  0.00  0.00    +0.016 A 
ATOM     13  C   UNL     1     -10.251  15.215  65.925  0.00  0.00    +0.008 A 
ATOM     14  C   UNL     1     -10.679  14.565  67.077  0.00  0.00    +0.076 A 
ATOM     15  C   UNL     1     -11.998  14.129  67.064  0.00  0.00    +0.008 A 
ATOM     16  C   UNL     1     -12.669  13.928  65.871  0.00  0.00    +0.016 A 
BRANCH  11  17
ATOM     17  N   UNL     1     -12.424  13.680  63.459  0.00  0.00    -0.238 NA
BRANCH  17  18
ATOM     18  C   UNL     1     -12.179  12.259  63.424  0.00  0.00    +0.112 C 
BRANCH  18  19
ATOM     19  C   UNL     1     -10.718  11.916  63.276  0.00  0.00    +0.023 C 
BRANCH  19  21
ATOM     20  C   UNL     1     -10.403  11.079  65.623  0.00  0.00    +0.000 C 
ATOM     21  C   UNL     1     -10.437  10.718  64.163  0.00  0.00    +0.002 C 
ENDBRANCH  19  21
ENDBRANCH  18  19
ENDBRANCH  17  18
ENDBRANCH  11  17
ENDBRANCH   9  14
ENDBRANCH   8   9
ENDBRANCH   7   8
ENDBRANCH   6   7
ENDBRANCH   5   6
ENDBRANCH   4   5
ENDBRANCH   3   4
ENDBRANCH   2   3
ENDBRANCH   1   2
BRANCH   1  22
ATOM     22  C   UNL     1     -12.604  10.547  71.309  0.00  0.00    +0.174 C 
BRANCH  22  23
ATOM     23  O   UNL     1     -13.573   9.943  72.121  0.00  0.00    -0.348 OA
BRANCH  23  24
ATOM     24  C   UNL     1     -13.219   8.586  72.193  0.00  0.00    +0.174 C 
BRANCH  24  25
ATOM     25  C   UNL     1     -11.712   8.428  72.297  0.00  0.00    +0.174 C 
BRANCH  25  26
ATOM     26  O   UNL     1     -11.349   7.094  72.361  0.00  0.00    -0.348 OA
BRANCH  26  27
ATOM     27  C   UNL     1     -10.621   6.882  73.522  0.00  0.00    +0.174 C 
BRANCH  27  28
ATOM     28  C   UNL     1     -10.423   5.424  73.836  0.00  0.00    +0.174 C 
BRANCH  28  29
ATOM     29  O   UNL     1     -10.909   4.659  72.767  0.00  0.00    -0.348 OA
BRANCH  29  30
ATOM     30  C   UNL     1      -9.895   3.794  72.358  0.00  0.00    +0.174 C 
BRANCH  30  31
ATOM     31  C   UNL     1      -9.729   3.937  70.862  0.00  0.00    +0.174 C 
BRANCH  31  32
ATOM     32  O   UNL     1      -9.369   5.241  70.522  0.00  0.00    -0.348 OA
BRANCH  32  33
ATOM     33  C   UNL     1     -10.009   5.650  69.361  0.00  0.00    +0.174 C 
BRANCH  33  34
ATOM     34  C   UNL     1      -9.137   6.515  68.497  0.00  0.00    +0.174 C 
BRANCH  34  35
ATOM     35  O   UNL     1      -9.861   7.535  67.894  0.00  0.00    -0.348 OA
BRANCH  35  36
ATOM     36  C   UNL     1     -10.452   8.395  68.813  0.00  0.00    +0.174 C 
BRANCH  36  37
ATOM     37  C   UNL     1      -9.621   9.651  68.957  0.00  0.00    +0.174 C 
BRANCH  37  38
ATOM     38  O   UNL     1      -8.969   9.600  70.181  0.00  0.00    -0.348 OA
BRANCH  38  39
ATOM     39  C   UNL     1      -7.657  10.029  69.999  0.00  0.00    +0.174 C 
BRANCH  39  40
ATOM     40  C   UNL     1      -6.682   9.091  70.693  0.00  0.00    +0.174 C 
BRANCH  40  41
ATOM     41  O   UNL     1      -7.003   9.111  72.050  0.00  0.00    -0.348 OA
ATOM     42  C   UNL     1      -7.167   7.794  72.450  0.00  0.00    +0.174 C 
ENDBRANCH  40  41
ENDBRANCH  39  40
ENDBRANCH  38  39
ENDBRANCH  37  38
ENDBRANCH  36  37
ENDBRANCH  35  36
ENDBRANCH  34  35
ENDBRANCH  33  34
ENDBRANCH  32  33
ENDBRANCH  31  32
ENDBRANCH  30  31
ENDBRANCH  29  30
ENDBRANCH  28  29
ENDBRANCH  27  28
ENDBRANCH  26  27
ENDBRANCH  25  26
ENDBRANCH  24  25
ENDBRANCH  23  24
ENDBRANCH  22  23
ENDBRANCH   1  22
TORSDOF 33
ENDMDL
MODEL 5
REMARK VINA RESULT:      -4.7      2.400      6.167
REMARK  Name = 
REMARK  33 active torsions:
REMARK  status: ('A' for Active; 'I' for Inactive)
REMARK    1  A    between atoms: C_2  and  C_3
REMARK    2  A    between atoms: C_3  and  C_4
REMARK    3  A    between atoms: C_4  and  N_5
REMARK    4  A    between atoms: N_5  and  C_6
REMARK    5  A    between atoms: C_9  and  C_10
REMARK    6  A    between atoms: C_10  and  O_12
REMARK    7  A    between atoms: O_12  and  C_13
REMARK    8  A    between atoms: C_13  and  C_14
REMARK    9  A    between atoms: C_14  and  O_15
REMARK   10  A    between atoms: O_15  and  C_16
REMARK   11  A    between atoms: C_16  and  C_17
REMARK   12  A    between atoms: C_17  and  O_18
REMARK   13  A    between atoms: O_18  and  C_19
REMARK   14  A    between atoms: C_19  and  C_20
REMARK   15  A    between atoms: C_20  and  O_21
REMARK   16  A    between atoms: O_21  and  C_22
REMARK   17  A    between atoms: C_22  and  C_23
REMARK   18  A    between atoms: C_23  and  O_24
REMARK   19  A    between atoms: O_24  and  C_25
REMARK   20  A    between atoms: C_25  and  C_26
REMARK   21  A    between atoms: C_26  and  O_27
REMARK   22  A    between atoms: O_27  and  C_28
REMARK   23  A    between atoms: C_28  and  C_29
REMARK   24  A    between atoms: C_29  and  O_30
REMARK   25  A    between atoms: O_30  and  C_31
REMARK   26  A    between atoms: C_31  and  C_32
REMARK   27  A    between atoms: C_32  and  O_33
REMARK   28  A    between atoms: O_33  and  C_34
REMARK   29  A    between atoms: C_34  and  C_35
REMARK   30  A    between atoms: C_35  and  O_36
REMARK   31  A    between atoms: O_36  and  C_37
REMARK   32  A    between atoms: C_37  and  C_38
REMARK   33  A    between atoms: C_38  and  O_39
REMARK                            x       y       z     vdW  Elec       q    Type
REMARK                         _______ _______ _______ _____ _____    ______ ____
ROOT
ATOM      1  C   UNL     1     -12.174  15.660  71.343  0.00  0.00    +0.174 C 
ENDROOT
BRANCH   1   2
ATOM      2  O   UNL     1     -13.488  15.946  71.016  0.00  0.00    -0.348 OA
BRANCH   2   3
ATOM      3  C   UNL     1     -14.358  14.994  71.559  0.00  0.00    +0.174 C 
BRANCH   3   4
ATOM      4  C   UNL     1     -13.544  14.170  72.537  0.00  0.00    +0.174 C 
BRANCH   4   5
ATOM      5  O   UNL     1     -13.942  12.825  72.480  0.00  0.00    -0.347 OA
BRANCH   5   6
ATOM      6  C   UNL     1     -13.010  12.119  71.711  0.00  0.00    +0.190 C 
BRANCH   6   7
ATOM      7  C   UNL     1     -13.263  10.643  71.949  0.00  0.00    +0.241 C 
BRANCH   7   8
ATOM      8  O   UNL     1     -12.780   9.943  70.815  0.00  0.00    -0.443 OA
BRANCH   8   9
ATOM      9  C   UNL     1     -11.488   9.442  70.723  0.00  0.00    +0.341 C 
ATOM     10  O   UNL     1     -10.915   9.109  71.806  0.00  0.00    -0.245 OA
BRANCH   9  14
ATOM     11  C   UNL     1      -9.407   9.816  67.091  0.00  0.00    +0.065 A 
ATOM     12  C   UNL     1     -10.666  10.372  67.278  0.00  0.00    +0.016 A 
ATOM     13  C   UNL     1     -11.192  10.479  68.561  0.00  0.00    +0.008 A 
ATOM     14  C   UNL     1     -10.583   9.852  69.641  0.00  0.00    +0.076 A 
ATOM     15  C   UNL     1      -9.585   8.941  69.323  0.00  0.00    +0.008 A 
ATOM     16  C   UNL     1      -8.931   9.001  68.104  0.00  0.00    +0.016 A 
BRANCH  11  17
ATOM     17  N   UNL     1      -8.495  10.370  66.136  0.00  0.00    -0.238 NA
BRANCH  17  18
ATOM     18  C   UNL     1      -7.088  10.130  66.343  0.00  0.00    +0.112 C 
BRANCH  18  19
ATOM     19  C   UNL     1      -6.358  11.331  66.889  0.00  0.00    +0.023 C 
BRANCH  19  21
ATOM     20  C   UNL     1      -6.589  11.474  69.386  0.00  0.00    +0.000 C 
ATOM     21  C   UNL     1      -5.778  10.943  68.236  0.00  0.00    +0.002 C 
ENDBRANCH  19  21
ENDBRANCH  18  19
ENDBRANCH  17  18
ENDBRANCH  11  17
ENDBRANCH   9  14
ENDBRANCH   8   9
ENDBRANCH   7   8
ENDBRANCH   6   7
ENDBRANCH   5   6
ENDBRANCH   4   5
ENDBRANCH   3   4
ENDBRANCH   2   3
ENDBRANCH   1   2
BRANCH   1  22
ATOM     22  C   UNL     1     -11.292  15.450  70.141  0.00  0.00    +0.174 C 
BRANCH  22  23
ATOM     23  O   UNL     1     -11.618  16.377  69.143  0.00  0.00    -0.348 OA
BRANCH  23  24
ATOM     24  C   UNL     1     -10.493  17.206  69.010  0.00  0.00    +0.174 C 
BRANCH  24  25
ATOM     25  C   UNL     1     -10.410  17.778  67.605  0.00  0.00    +0.174 C 
BRANCH  25  26
ATOM     26  O   UNL     1     -11.038  19.009  67.524  0.00  0.00    -0.348 OA
BRANCH  26  27
ATOM     27  C   UNL     1     -10.094  20.008  67.711  0.00  0.00    +0.174 C 
BRANCH  27  28
ATOM     28  C   UNL     1      -8.729  19.631  67.203  0.00  0.00    +0.174 C 
BRANCH  28  29
ATOM     29  O   UNL     1      -7.766  20.065  68.124  0.00  0.00    -0.348 OA
BRANCH  29  30
ATOM     30  C   UNL     1      -7.141  18.939  68.659  0.00  0.00    +0.174 C 
BRANCH  30  31
ATOM     31  C   UNL     1      -6.070  18.490  67.691  0.00  0.00    +0.174 C 
BRANCH  31  32
ATOM     32  O   UNL     1      -5.750  17.146  67.888  0.00  0.00    -0.348 OA
BRANCH  32  33
ATOM     33  C   UNL     1      -6.439  16.333  66.999  0.00  0.00    +0.174 C 
BRANCH  33  34
ATOM     34  C   UNL     1      -6.894  15.048  67.630  0.00  0.00    +0.174 C 
BRANCH  34  35
ATOM     35  O   UNL     1      -8.246  15.083  67.948  0.00  0.00    -0.348 OA
BRANCH  35  36
ATOM     36  C   UNL     1      -8.855  13.837  67.853  0.00  0.00    +0.174 C 
BRANCH  36  37
ATOM     37  C   UNL     1      -9.568  13.707  66.525  0.00  0.00    +0.174 C 
BRANCH  37  38
ATOM     38  O   UNL     1     -10.707  14.499  66.566  0.00  0.00    -0.348 OA
BRANCH  38  39
ATOM     39  C   UNL     1     -11.741  13.819  65.930  0.00  0.00    +0.174 C 
BRANCH  39  40
ATOM     40  C   UNL     1     -12.113  14.502  64.624  0.00  0.00    +0.174 C 
BRANCH  40  41
ATOM     41  O   UNL     1     -12.799  13.559  63.859  0.00  0.00    -0.348 OA
ATOM     42  C   UNL     1     -11.878  12.597  63.475  0.00  0.00    +0.174 C 
ENDBRANCH  40  41
ENDBRANCH  39  40
ENDBRANCH  38  39
ENDBRANCH  37  38
ENDBRANCH  36  37
ENDBRANCH  35  36
ENDBRANCH  34  35
ENDBRANCH  33  34
ENDBRANCH  32  33
ENDBRANCH  31  32
ENDBRANCH  30  31
ENDBRANCH  29  30
ENDBRANCH  28  29
ENDBRANCH  27  28
ENDBRANCH  26  27
ENDBRANCH  25  26
ENDBRANCH  24  25
ENDBRANCH  23  24
ENDBRANCH  22  23
ENDBRANCH   1  22
TORSDOF 33
ENDMDL
MODEL 6
REMARK VINA RESULT:      -4.7      2.722      8.417
REMARK  Name = 
REMARK  33 active torsions:
REMARK  status: ('A' for Active; 'I' for Inactive)
REMARK    1  A    between atoms: C_2  and  C_3
REMARK    2  A    between atoms: C_3  and  C_4
REMARK    3  A    between atoms: C_4  and  N_5
REMARK    4  A    between atoms: N_5  and  C_6
REMARK    5  A    between atoms: C_9  and  C_10
REMARK    6  A    between atoms: C_10  and  O_12
REMARK    7  A    between atoms: O_12  and  C_13
REMARK    8  A    between atoms: C_13  and  C_14
REMARK    9  A    between atoms: C_14  and  O_15
REMARK   10  A    between atoms: O_15  and  C_16
REMARK   11  A    between atoms: C_16  and  C_17
REMARK   12  A    between atoms: C_17  and  O_18
REMARK   13  A    between atoms: O_18  and  C_19
REMARK   14  A    between atoms: C_19  and  C_20
REMARK   15  A    between atoms: C_20  and  O_21
REMARK   16  A    between atoms: O_21  and  C_22
REMARK   17  A    between atoms: C_22  and  C_23
REMARK   18  A    between atoms: C_23  and  O_24
REMARK   19  A    between atoms: O_24  and  C_25
REMARK   20  A    between atoms: C_25  and  C_26
REMARK   21  A    between atoms: C_26  and  O_27
REMARK   22  A    between atoms: O_27  and  C_28
REMARK   23  A    between atoms: C_28  and  C_29
REMARK   24  A    between atoms: C_29  and  O_30
REMARK   25  A    between atoms: O_30  and  C_31
REMARK   26  A    between atoms: C_31  and  C_32
REMARK   27  A    between atoms: C_32  and  O_33
REMARK   28  A    between atoms: O_33  and  C_34
REMARK   29  A    between atoms: C_34  and  C_35
REMARK   30  A    between atoms: C_35  and  O_36
REMARK   31  A    between atoms: O_36  and  C_37
REMARK   32  A    between atoms: C_37  and  C_38
REMARK   33  A    between atoms: C_38  and  O_39
REMARK                            x       y       z     vdW  Elec       q    Type
REMARK                         _______ _______ _______ _____ _____    ______ ____
ROOT
ATOM      1  C   UNL     1     -12.153  12.677  63.343  0.00  0.00    +0.174 C 
ENDROOT
BRANCH   1   2
ATOM      2  O   UNL     1     -12.790  13.440  64.307  0.00  0.00    -0.348 OA
BRANCH   2   3
ATOM      3  C   UNL     1     -11.872  14.239  65.000  0.00  0.00    +0.174 C 
BRANCH   3   4
ATOM      4  C   UNL     1     -12.143  14.031  66.476  0.00  0.00    +0.174 C 
BRANCH   4   5
ATOM      5  O   UNL     1     -11.592  12.811  66.899  0.00  0.00    -0.347 OA
BRANCH   5   6
ATOM      6  C   UNL     1     -11.071  12.982  68.186  0.00  0.00    +0.190 C 
BRANCH   6   7
ATOM      7  C   UNL     1      -9.662  12.422  68.174  0.00  0.00    +0.241 C 
BRANCH   7   8
ATOM      8  O   UNL     1      -8.780  13.489  68.482  0.00  0.00    -0.443 OA
BRANCH   8   9
ATOM      9  C   UNL     1      -8.310  14.385  67.530  0.00  0.00    +0.341 C 
ATOM     10  O   UNL     1      -7.136  14.199  67.086  0.00  0.00    -0.245 OA
BRANCH   9  14
ATOM     11  C   UNL     1     -10.611  17.894  67.298  0.00  0.00    +0.065 A 
ATOM     12  C   UNL     1     -10.509  17.159  68.472  0.00  0.00    +0.016 A 
ATOM     13  C   UNL     1      -9.525  16.184  68.594  0.00  0.00    +0.008 A 
ATOM     14  C   UNL     1      -8.776  15.778  67.496  0.00  0.00    +0.076 A 
ATOM     15  C   UNL     1      -9.229  16.224  66.262  0.00  0.00    +0.008 A 
ATOM     16  C   UNL     1     -10.044  17.338  66.164  0.00  0.00    +0.016 A 
BRANCH  11  17
ATOM     17  N   UNL     1     -10.898  19.297  67.335  0.00  0.00    -0.238 NA
BRANCH  17  18
ATOM     18  C   UNL     1      -9.851  20.201  66.928  0.00  0.00    +0.112 C 
BRANCH  18  19
ATOM     19  C   UNL     1      -8.728  20.293  67.930  0.00  0.00    +0.023 C 
BRANCH  19  21
ATOM     20  C   UNL     1      -6.990  19.171  66.505  0.00  0.00    +0.000 C 
ATOM     21  C   UNL     1      -7.434  20.453  67.155  0.00  0.00    +0.002 C 
ENDBRANCH  19  21
ENDBRANCH  18  19
ENDBRANCH  17  18
ENDBRANCH  11  17
ENDBRANCH   9  14
ENDBRANCH   8   9
ENDBRANCH   7   8
ENDBRANCH   6   7
ENDBRANCH   5   6
ENDBRANCH   4   5
ENDBRANCH   3   4
ENDBRANCH   2   3
ENDBRANCH   1   2
BRANCH   1  22
ATOM     22  C   UNL     1     -11.420  11.490  63.909  0.00  0.00    +0.174 C 
BRANCH  22  23
ATOM     23  O   UNL     1     -10.258  11.249  63.165  0.00  0.00    -0.348 OA
BRANCH  23  24
ATOM     24  C   UNL     1      -9.372  10.601  64.040  0.00  0.00    +0.174 C 
BRANCH  24  25
ATOM     25  C   UNL     1     -10.123   9.983  65.206  0.00  0.00    +0.174 C 
BRANCH  25  26
ATOM     26  O   UNL     1      -9.313   9.126  65.931  0.00  0.00    -0.348 OA
BRANCH  26  27
ATOM     27  C   UNL     1     -10.109   8.344  66.754  0.00  0.00    +0.174 C 
BRANCH  27  28
ATOM     28  C   UNL     1      -9.363   7.785  67.935  0.00  0.00    +0.174 C 
BRANCH  28  29
ATOM     29  O   UNL     1      -9.546   6.396  67.973  0.00  0.00    -0.348 OA
BRANCH  29  30
ATOM     30  C   UNL     1     -10.792   6.140  68.543  0.00  0.00    +0.174 C 
BRANCH  30  31
ATOM     31  C   UNL     1     -10.578   5.318  69.794  0.00  0.00    +0.174 C 
BRANCH  31  32
ATOM     32  O   UNL     1     -10.918   6.046  70.934  0.00  0.00    -0.348 OA
BRANCH  32  33
ATOM     33  C   UNL     1     -11.900   6.986  70.653  0.00  0.00    +0.174 C 
BRANCH  33  34
ATOM     34  C   UNL     1     -11.507   8.372  71.080  0.00  0.00    +0.174 C 
BRANCH  34  35
ATOM     35  O   UNL     1     -12.243   8.798  72.178  0.00  0.00    -0.348 OA
BRANCH  35  36
ATOM     36  C   UNL     1     -13.158   9.795  71.862  0.00  0.00    +0.174 C 
BRANCH  36  37
ATOM     37  C   UNL     1     -12.654  10.611  70.691  0.00  0.00    +0.174 C 
BRANCH  37  38
ATOM     38  O   UNL     1     -12.394  11.898  71.141  0.00  0.00    -0.348 OA
BRANCH  38  39
ATOM     39  C   UNL     1     -13.425  12.283  71.994  0.00  0.00    +0.174 C 
BRANCH  39  40
ATOM     40  C   UNL     1     -13.327  13.764  72.323  0.00  0.00    +0.174 C 
BRANCH  40  41
ATOM     41  O   UNL     1     -12.361  14.301  71.473  0.00  0.00    -0.348 OA
ATOM     42  C   UNL     1     -12.912  15.434  70.893  0.00  0.00    +0.174 C 
ENDBRANCH  40  41
ENDBRANCH  39  40
ENDBRANCH  38  39
ENDBRANCH  37  38
ENDBRANCH  36  37
ENDBRANCH  35  36
ENDBRANCH  34  35
ENDBRANCH  33  34
ENDBRANCH  32  33
ENDBRANCH  31  32
ENDBRANCH  30  31
ENDBRANCH  29  30
ENDBRANCH  28  29
ENDBRANCH  27  28
ENDBRANCH  26  27
ENDBRANCH  25  26
ENDBRANCH  24  25
ENDBRANCH  23  24
ENDBRANCH  22  23
ENDBRANCH   1  22
TORSDOF 33
ENDMDL
MODEL 7
REMARK VINA RESULT:      -4.7      3.982      7.050
REMARK  Name = 
REMARK  33 active torsions:
REMARK  status: ('A' for Active; 'I' for Inactive)
REMARK    1  A    between atoms: C_2  and  C_3
REMARK    2  A    between atoms: C_3  and  C_4
REMARK    3  A    between atoms: C_4  and  N_5
REMARK    4  A    between atoms: N_5  and  C_6
REMARK    5  A    between atoms: C_9  and  C_10
REMARK    6  A    between atoms: C_10  and  O_12
REMARK    7  A    between atoms: O_12  and  C_13
REMARK    8  A    between atoms: C_13  and  C_14
REMARK    9  A    between atoms: C_14  and  O_15
REMARK   10  A    between atoms: O_15  and  C_16
REMARK   11  A    between atoms: C_16  and  C_17
REMARK   12  A    between atoms: C_17  and  O_18
REMARK   13  A    between atoms: O_18  and  C_19
REMARK   14  A    between atoms: C_19  and  C_20
REMARK   15  A    between atoms: C_20  and  O_21
REMARK   16  A    between atoms: O_21  and  C_22
REMARK   17  A    between atoms: C_22  and  C_23
REMARK   18  A    between atoms: C_23  and  O_24
REMARK   19  A    between atoms: O_24  and  C_25
REMARK   20  A    between atoms: C_25  and  C_26
REMARK   21  A    between atoms: C_26  and  O_27
REMARK   22  A    between atoms: O_27  and  C_28
REMARK   23  A    between atoms: C_28  and  C_29
REMARK   24  A    between atoms: C_29  and  O_30
REMARK   25  A    between atoms: O_30  and  C_31
REMARK   26  A    between atoms: C_31  and  C_32
REMARK   27  A    between atoms: C_32  and  O_33
REMARK   28  A    between atoms: O_33  and  C_34
REMARK   29  A    between atoms: C_34  and  C_35
REMARK   30  A    between atoms: C_35  and  O_36
REMARK   31  A    between atoms: O_36  and  C_37
REMARK   32  A    between atoms: C_37  and  C_38
REMARK   33  A    between atoms: C_38  and  O_39
REMARK                            x       y       z     vdW  Elec       q    Type
REMARK                         _______ _______ _______ _____ _____    ______ ____
ROOT
ATOM      1  C   UNL     1      -9.145  10.839  66.294  0.00  0.00    +0.174 C 
ENDROOT
BRANCH   1   2
ATOM      2  O   UNL     1      -9.488  10.852  67.635  0.00  0.00    -0.348 OA
BRANCH   2   3
ATOM      3  C   UNL     1     -10.855  10.602  67.805  0.00  0.00    +0.174 C 
BRANCH   3   4
ATOM      4  C   UNL     1     -11.267  11.296  69.088  0.00  0.00    +0.174 C 
BRANCH   4   5
ATOM      5  O   UNL     1     -12.298  10.577  69.713  0.00  0.00    -0.347 OA
BRANCH   5   6
ATOM      6  C   UNL     1     -12.094  10.622  71.097  0.00  0.00    +0.190 C 
BRANCH   6   7
ATOM      7  C   UNL     1     -13.331  10.034  71.748  0.00  0.00    +0.241 C 
BRANCH   7   8
ATOM      8  O   UNL     1     -12.960   8.785  72.308  0.00  0.00    -0.443 OA
BRANCH   8   9
ATOM      9  C   UNL     1     -12.868   7.615  71.564  0.00  0.00    +0.341 C 
ATOM     10  O   UNL     1     -13.869   6.834  71.583  0.00  0.00    -0.245 OA
BRANCH   9  14
ATOM     11  C   UNL     1      -9.777   4.852  70.879  0.00  0.00    +0.065 A 
ATOM     12  C   UNL     1     -10.610   5.291  69.858  0.00  0.00    +0.016 A 
ATOM     13  C   UNL     1     -11.419   6.405  70.056  0.00  0.00    +0.008 A 
ATOM     14  C   UNL     1     -11.575   6.965  71.318  0.00  0.00    +0.076 A 
ATOM     15  C   UNL     1     -11.077   6.213  72.374  0.00  0.00    +0.008 A 
ATOM     16  C   UNL     1     -10.107   5.248  72.163  0.00  0.00    +0.016 A 
BRANCH  11  17
ATOM     17  N   UNL     1      -8.453   4.386  70.595  0.00  0.00    -0.238 NA
BRANCH  17  18
ATOM     18  C   UNL     1      -8.220   2.964  70.661  0.00  0.00    +0.112 C 
BRANCH  18  19
ATOM     19  C   UNL     1      -9.487   2.165  70.833  0.00  0.00    +0.023 C 
BRANCH  19  21
ATOM     20  C   UNL     1     -11.004   1.413  72.688  0.00  0.00    +0.000 C 
ATOM     21  C   UNL     1      -9.603   1.801  72.301  0.00  0.00    +0.002 C 
ENDBRANCH  19  21
ENDBRANCH  18  19
ENDBRANCH  17  18
ENDBRANCH  11  17
ENDBRANCH   9  14
ENDBRANCH   8   9
ENDBRANCH   7   8
ENDBRANCH   6   7
ENDBRANCH   5   6
ENDBRANCH   4   5
ENDBRANCH   3   4
ENDBRANCH   2   3
ENDBRANCH   1   2
BRANCH   1  22
ATOM     22  C   UNL     1     -10.331  10.706  65.376  0.00  0.00    +0.174 C 
BRANCH  22  23
ATOM     23  O   UNL     1     -10.318  11.738  64.430  0.00  0.00    -0.348 OA
BRANCH  23  24
ATOM     24  C   UNL     1     -11.379  11.465  63.551  0.00  0.00    +0.174 C 
BRANCH  24  25
ATOM     25  C   UNL     1     -12.297  12.668  63.425  0.00  0.00    +0.174 C 
BRANCH  25  26
ATOM     26  O   UNL     1     -12.939  12.939  64.621  0.00  0.00    -0.348 OA
BRANCH  26  27
ATOM     27  C   UNL     1     -12.417  14.107  65.156  0.00  0.00    +0.174 C 
BRANCH  27  28
ATOM     28  C   UNL     1     -12.034  13.971  66.605  0.00  0.00    +0.174 C 
BRANCH  28  29
ATOM     29  O   UNL     1     -10.681  14.305  66.751  0.00  0.00    -0.348 OA
BRANCH  29  30
ATOM     30  C   UNL     1     -10.332  15.165  65.711  0.00  0.00    +0.174 C 
BRANCH  30  31
ATOM     31  C   UNL     1      -8.963  15.734  66.007  0.00  0.00    +0.174 C 
BRANCH  31  32
ATOM     32  O   UNL     1      -8.977  17.127  65.946  0.00  0.00    -0.348 OA
BRANCH  32  33
ATOM     33  C   UNL     1     -10.250  17.625  66.183  0.00  0.00    +0.174 C 
BRANCH  33  34
ATOM     34  C   UNL     1     -10.399  18.186  67.568  0.00  0.00    +0.174 C 
BRANCH  34  35
ATOM     35  O   UNL     1     -11.167  17.358  68.378  0.00  0.00    -0.348 OA
BRANCH  35  36
ATOM     36  C   UNL     1     -10.399  16.581  69.237  0.00  0.00    +0.174 C 
BRANCH  36  37
ATOM     37  C   UNL     1     -11.255  16.061  70.372  0.00  0.00    +0.174 C 
BRANCH  37  38
ATOM     38  O   UNL     1     -11.458  14.702  70.173  0.00  0.00    -0.348 OA
BRANCH  38  39
ATOM     39  C   UNL     1     -12.720  14.369  70.657  0.00  0.00    +0.174 C 
BRANCH  39  40
ATOM     40  C   UNL     1     -13.155  15.341  71.742  0.00  0.00    +0.174 C 
BRANCH  40  41
ATOM     41  O   UNL     1     -13.175  14.625  72.938  0.00  0.00    -0.348 OA
ATOM     42  C   UNL     1     -12.504  15.388  73.882  0.00  0.00    +0.174 C 
ENDBRANCH  40  41
ENDBRANCH  39  40
ENDBRANCH  38  39
ENDBRANCH  37  38
ENDBRANCH  36  37
ENDBRANCH  35  36
ENDBRANCH  34  35
ENDBRANCH  33  34
ENDBRANCH  32  33
ENDBRANCH  31  32
ENDBRANCH  30  31
ENDBRANCH  29  30
ENDBRANCH  28  29
ENDBRANCH  27  28
ENDBRANCH  26  27
ENDBRANCH  25  26
ENDBRANCH  24  25
ENDBRANCH  23  24
ENDBRANCH  22  23
ENDBRANCH   1  22
TORSDOF 33
ENDMDL
MODEL 8
REMARK VINA RESULT:      -4.7      2.392      5.939
REMARK  Name = 
REMARK  33 active torsions:
REMARK  status: ('A' for Active; 'I' for Inactive)
REMARK    1  A    between atoms: C_2  and  C_3
REMARK    2  A    between atoms: C_3  and  C_4
REMARK    3  A    between atoms: C_4  and  N_5
REMARK    4  A    between atoms: N_5  and  C_6
REMARK    5  A    between atoms: C_9  and  C_10
REMARK    6  A    between atoms: C_10  and  O_12
REMARK    7  A    between atoms: O_12  and  C_13
REMARK    8  A    between atoms: C_13  and  C_14
REMARK    9  A    between atoms: C_14  and  O_15
REMARK   10  A    between atoms: O_15  and  C_16
REMARK   11  A    between atoms: C_16  and  C_17
REMARK   12  A    between atoms: C_17  and  O_18
REMARK   13  A    between atoms: O_18  and  C_19
REMARK   14  A    between atoms: C_19  and  C_20
REMARK   15  A    between atoms: C_20  and  O_21
REMARK   16  A    between atoms: O_21  and  C_22
REMARK   17  A    between atoms: C_22  and  C_23
REMARK   18  A    between atoms: C_23  and  O_24
REMARK   19  A    between atoms: O_24  and  C_25
REMARK   20  A    between atoms: C_25  and  C_26
REMARK   21  A    between atoms: C_26  and  O_27
REMARK   22  A    between atoms: O_27  and  C_28
REMARK   23  A    between atoms: C_28  and  C_29
REMARK   24  A    between atoms: C_29  and  O_30
REMARK   25  A    between atoms: O_30  and  C_31
REMARK   26  A    between atoms: C_31  and  C_32
REMARK   27  A    between atoms: C_32  and  O_33
REMARK   28  A    between atoms: O_33  and  C_34
REMARK   29  A    between atoms: C_34  and  C_35
REMARK   30  A    between atoms: C_35  and  O_36
REMARK   31  A    between atoms: O_36  and  C_37
REMARK   32  A    between atoms: C_37  and  C_38
REMARK   33  A    between atoms: C_38  and  O_39
REMARK                            x       y       z     vdW  Elec       q    Type
REMARK                         _______ _______ _______ _____ _____    ______ ____
ROOT
ATOM      1  C   UNL     1     -12.116  13.976  66.504  0.00  0.00    +0.174 C 
ENDROOT
BRANCH   1   2
ATOM      2  O   UNL     1     -10.789  14.251  66.785  0.00  0.00    -0.348 OA
BRANCH   2   3
ATOM      3  C   UNL     1     -10.648  14.772  68.077  0.00  0.00    +0.174 C 
BRANCH   3   4
ATOM      4  C   UNL     1     -11.199  16.183  68.038  0.00  0.00    +0.174 C 
BRANCH   4   5
ATOM      5  O   UNL     1     -12.092  16.378  69.104  0.00  0.00    -0.347 OA
BRANCH   5   6
ATOM      6  C   UNL     1     -11.485  15.921  70.280  0.00  0.00    +0.190 C 
BRANCH   6   7
ATOM      7  C   UNL     1     -12.582  15.338  71.149  0.00  0.00    +0.241 C 
BRANCH   7   8
ATOM      8  O   UNL     1     -12.832  14.021  70.688  0.00  0.00    -0.443 OA
BRANCH   8   9
ATOM      9  C   UNL     1     -13.317  13.008  71.504  0.00  0.00    +0.341 C 
ATOM     10  O   UNL     1     -13.923  13.355  72.565  0.00  0.00    -0.245 OA
BRANCH   9  14
ATOM     11  C   UNL     1     -12.184   9.005  70.907  0.00  0.00    +0.065 A 
ATOM     12  C   UNL     1     -11.762  10.023  70.061  0.00  0.00    +0.016 A 
ATOM     13  C   UNL     1     -11.912  11.350  70.447  0.00  0.00    +0.008 A 
ATOM     14  C   UNL     1     -12.665  11.694  71.563  0.00  0.00    +0.076 A 
ATOM     15  C   UNL     1     -13.432  10.672  72.107  0.00  0.00    +0.008 A 
ATOM     16  C   UNL     1     -13.119   9.345  71.869  0.00  0.00    +0.016 A 
BRANCH  11  17
ATOM     17  N   UNL     1     -11.410   7.810  71.057  0.00  0.00    -0.238 NA
BRANCH  17  18
ATOM     18  C   UNL     1     -10.499   7.470  69.991  0.00  0.00    +0.112 C 
BRANCH  18  19
ATOM     19  C   UNL     1     -11.080   6.482  69.011  0.00  0.00    +0.023 C 
BRANCH  19  21
ATOM     20  C   UNL     1     -10.694   5.587  66.696  0.00  0.00    +0.000 C 
ATOM     21  C   UNL     1     -10.346   6.656  67.695  0.00  0.00    +0.002 C 
ENDBRANCH  19  21
ENDBRANCH  18  19
ENDBRANCH  17  18
ENDBRANCH  11  17
ENDBRANCH   9  14
ENDBRANCH   8   9
ENDBRANCH   7   8
ENDBRANCH   6   7
ENDBRANCH   5   6
ENDBRANCH   4   5
ENDBRANCH   3   4
ENDBRANCH   2   3
ENDBRANCH   1   2
BRANCH   1  22
ATOM     22  C   UNL     1     -12.386  13.774  65.037  0.00  0.00    +0.174 C 
BRANCH  22  23
ATOM     23  O   UNL     1     -13.026  12.545  64.836  0.00  0.00    -0.348 OA
BRANCH  23  24
ATOM     24  C   UNL     1     -12.505  12.034  63.636  0.00  0.00    +0.174 C 
BRANCH  24  25
ATOM     25  C   UNL     1     -11.004  12.254  63.566  0.00  0.00    +0.174 C 
BRANCH  25  26
ATOM     26  O   UNL     1     -10.325  11.056  63.425  0.00  0.00    -0.348 OA
BRANCH  26  27
ATOM     27  C   UNL     1      -9.322  10.993  64.381  0.00  0.00    +0.174 C 
BRANCH  27  28
ATOM     28  C   UNL     1      -9.788  10.407  65.686  0.00  0.00    +0.174 C 
BRANCH  28  29
ATOM     29  O   UNL     1      -8.756  10.513  66.628  0.00  0.00    -0.348 OA
BRANCH  29  30
ATOM     30  C   UNL     1      -9.233  11.250  67.711  0.00  0.00    +0.174 C 
BRANCH  30  31
ATOM     31  C   UNL     1      -8.150  12.213  68.140  0.00  0.00    +0.174 C 
BRANCH  31  32
ATOM     32  O   UNL     1      -7.184  12.355  67.144  0.00  0.00    -0.348 OA
BRANCH  32  33
ATOM     33  C   UNL     1      -6.163  13.200  67.555  0.00  0.00    +0.174 C 
BRANCH  33  34
ATOM     34  C   UNL     1      -6.670  14.549  67.980  0.00  0.00    +0.174 C 
BRANCH  34  35
ATOM     35  O   UNL     1      -6.469  15.507  66.995  0.00  0.00    -0.348 OA
BRANCH  35  36
ATOM     36  C   UNL     1      -7.636  16.176  66.646  0.00  0.00    +0.174 C 
BRANCH  36  37
ATOM     37  C   UNL     1      -7.468  17.664  66.867  0.00  0.00    +0.174 C 
BRANCH  37  38
ATOM     38  O   UNL     1      -8.108  18.329  65.830  0.00  0.00    -0.348 OA
BRANCH  38  39
ATOM     39  C   UNL     1      -8.029  19.698  66.070  0.00  0.00    +0.174 C 
BRANCH  39  40
ATOM     40  C   UNL     1      -6.629  20.087  66.520  0.00  0.00    +0.174 C 
BRANCH  40  41
ATOM     41  O   UNL     1      -6.775  21.148  67.413  0.00  0.00    -0.348 OA
ATOM     42  C   UNL     1      -5.802  20.997  68.389  0.00  0.00    +0.174 C 
ENDBRANCH  40  41
ENDBRANCH  39  40
ENDBRANCH  38  39
ENDBRANCH  37  38
ENDBRANCH  36  37
ENDBRANCH  35  36
ENDBRANCH  34  35
ENDBRANCH  33  34
ENDBRANCH  32  33
ENDBRANCH  31  32
ENDBRANCH  30  31
ENDBRANCH  29  30
ENDBRANCH  28  29
ENDBRANCH  27  28
ENDBRANCH  26  27
ENDBRANCH  25  26
ENDBRANCH  24  25
ENDBRANCH  23  24
ENDBRANCH  22  23
ENDBRANCH   1  22
TORSDOF 33
ENDMDL
MODEL 9
REMARK VINA RESULT:      -4.7      2.397      4.625
REMARK  Name = 
REMARK  33 active torsions:
REMARK  status: ('A' for Active; 'I' for Inactive)
REMARK    1  A    between atoms: C_2  and  C_3
REMARK    2  A    between atoms: C_3  and  C_4
REMARK    3  A    between atoms: C_4  and  N_5
REMARK    4  A    between atoms: N_5  and  C_6
REMARK    5  A    between atoms: C_9  and  C_10
REMARK    6  A    between atoms: C_10  and  O_12
REMARK    7  A    between atoms: O_12  and  C_13
REMARK    8  A    between atoms: C_13  and  C_14
REMARK    9  A    between atoms: C_14  and  O_15
REMARK   10  A    between atoms: O_15  and  C_16
REMARK   11  A    between atoms: C_16  and  C_17
REMARK   12  A    between atoms: C_17  and  O_18
REMARK   13  A    between atoms: O_18  and  C_19
REMARK   14  A    between atoms: C_19  and  C_20
REMARK   15  A    between atoms: C_20  and  O_21
REMARK   16  A    between atoms: O_21  and  C_22
REMARK   17  A    between atoms: C_22  and  C_23
REMARK   18  A    between atoms: C_23  and  O_24
REMARK   19  A    between atoms: O_24  and  C_25
REMARK   20  A    between atoms: C_25  and  C_26
REMARK   21  A    between atoms: C_26  and  O_27
REMARK   22  A    between atoms: O_27  and  C_28
REMARK   23  A    between atoms: C_28  and  C_29
REMARK   24  A    between atoms: C_29  and  O_30
REMARK   25  A    between atoms: O_30  and  C_31
REMARK   26  A    between atoms: C_31  and  C_32
REMARK   27  A    between atoms: C_32  and  O_33
REMARK   28  A    between atoms: O_33  and  C_34
REMARK   29  A    between atoms: C_34  and  C_35
REMARK   30  A    between atoms: C_35  and  O_36
REMARK   31  A    between atoms: O_36  and  C_37
REMARK   32  A    between atoms: C_37  and  C_38
REMARK   33  A    between atoms: C_38  and  O_39
REMARK                            x       y       z     vdW  Elec       q    Type
REMARK                         _______ _______ _______ _____ _____    ______ ____
ROOT
ATOM      1  C   UNL     1     -11.714  13.953  64.646  0.00  0.00    +0.174 C 
ENDROOT
BRANCH   1   2
ATOM      2  O   UNL     1     -12.505  13.548  63.585  0.00  0.00    -0.348 OA
BRANCH   2   3
ATOM      3  C   UNL     1     -12.360  12.176  63.348  0.00  0.00    +0.174 C 
BRANCH   3   4
ATOM      4  C   UNL     1     -10.875  11.878  63.419  0.00  0.00    +0.174 C 
BRANCH   4   5
ATOM      5  O   UNL     1     -10.661  10.668  64.097  0.00  0.00    -0.347 OA
BRANCH   5   6
ATOM      6  C   UNL     1      -9.523  10.055  63.560  0.00  0.00    +0.190 C 
BRANCH   6   7
ATOM      7  C   UNL     1      -8.710   9.527  64.727  0.00  0.00    +0.241 C 
BRANCH   7   8
ATOM      8  O   UNL     1      -9.626   9.051  65.699  0.00  0.00    -0.443 OA
BRANCH   8   9
ATOM      9  C   UNL     1      -9.503   9.320  67.056  0.00  0.00    +0.341 C 
ATOM     10  O   UNL     1      -8.502  10.009  67.424  0.00  0.00    -0.245 OA
BRANCH   9  14
ATOM     11  C   UNL     1     -10.198   6.047  69.599  0.00  0.00    +0.065 A 
ATOM     12  C   UNL     1      -9.223   6.997  69.874  0.00  0.00    +0.016 A 
ATOM     13  C   UNL     1      -9.216   8.202  69.180  0.00  0.00    +0.008 A 
ATOM     14  C   UNL     1     -10.029   8.397  68.070  0.00  0.00    +0.076 A 
ATOM     15  C   UNL     1     -10.649   7.258  67.573  0.00  0.00    +0.008 A 
ATOM     16  C   UNL     1     -10.829   6.141  68.371  0.00  0.00    +0.016 A 
BRANCH  11  17
ATOM     17  N   UNL     1     -10.805   5.293  70.655  0.00  0.00    -0.238 NA
BRANCH  17  18
ATOM     18  C   UNL     1     -11.173   6.006  71.854  0.00  0.00    +0.112 C 
BRANCH  18  19
ATOM     19  C   UNL     1     -12.284   7.001  71.632  0.00  0.00    +0.023 C 
BRANCH  19  21
ATOM     20  C   UNL     1     -12.442   9.501  71.444  0.00  0.00    +0.000 C 
ATOM     21  C   UNL     1     -11.814   8.340  72.167  0.00  0.00    +0.002 C 
ENDBRANCH  19  21
ENDBRANCH  18  19
ENDBRANCH  17  18
ENDBRANCH  11  17
ENDBRANCH   9  14
ENDBRANCH   8   9
ENDBRANCH   7   8
ENDBRANCH   6   7
ENDBRANCH   5   6
ENDBRANCH   4   5
ENDBRANCH   3   4
ENDBRANCH   2   3
ENDBRANCH   1   2
BRANCH   1  22
ATOM     22  C   UNL     1     -12.452  14.001  65.957  0.00  0.00    +0.174 C 
BRANCH  22  23
ATOM     23  O   UNL     1     -12.462  12.729  66.544  0.00  0.00    -0.348 OA
BRANCH  23  24
ATOM     24  C   UNL     1     -11.336  12.687  67.383  0.00  0.00    +0.174 C 
BRANCH  24  25
ATOM     25  C   UNL     1     -11.733  12.296  68.796  0.00  0.00    +0.174 C 
BRANCH  25  26
ATOM     26  O   UNL     1     -11.364  13.268  69.710  0.00  0.00    -0.348 OA
BRANCH  26  27
ATOM     27  C   UNL     1     -12.404  14.175  69.846  0.00  0.00    +0.174 C 
BRANCH  27  28
ATOM     28  C   UNL     1     -11.958  15.504  70.391  0.00  0.00    +0.174 C 
BRANCH  28  29
ATOM     29  O   UNL     1     -11.652  16.356  69.321  0.00  0.00    -0.348 OA
BRANCH  29  30
ATOM     30  C   UNL     1     -10.265  16.470  69.242  0.00  0.00    +0.174 C 
BRANCH  30  31
ATOM     31  C   UNL     1      -9.828  15.978  67.881  0.00  0.00    +0.174 C 
BRANCH  31  32
ATOM     32  O   UNL     1      -8.812  15.029  67.995  0.00  0.00    -0.348 OA
BRANCH  32  33
ATOM     33  C   UNL     1      -7.822  15.241  67.046  0.00  0.00    +0.174 C 
BRANCH  33  34
ATOM     34  C   UNL     1      -6.739  16.157  67.541  0.00  0.00    +0.174 C 
BRANCH  34  35
ATOM     35  O   UNL     1      -6.215  16.934  66.515  0.00  0.00    -0.348 OA
BRANCH  35  36
ATOM     36  C   UNL     1      -7.104  17.904  66.065  0.00  0.00    +0.174 C 
BRANCH  36  37
ATOM     37  C   UNL     1      -6.816  19.226  66.742  0.00  0.00    +0.174 C 
BRANCH  37  38
ATOM     38  O   UNL     1      -7.715  19.380  67.788  0.00  0.00    -0.348 OA
BRANCH  38  39
ATOM     39  C   UNL     1      -8.798  20.126  67.333  0.00  0.00    +0.174 C 
BRANCH  39  40
ATOM     40  C   UNL     1     -10.042  19.827  68.155  0.00  0.00    +0.174 C 
BRANCH  40  41
ATOM     41  O   UNL     1     -10.980  19.281  67.279  0.00  0.00    -0.348 OA
ATOM     42  C   UNL     1     -10.612  19.665  65.998  0.00  0.00    +0.174 C 
ENDBRANCH  40  41
ENDBRANCH  39  40
ENDBRANCH  38  39
ENDBRANCH  37  38
ENDBRANCH  36  37
ENDBRANCH  35  36
ENDBRANCH  34  35
ENDBRANCH  33  34
ENDBRANCH  32  33
ENDBRANCH  31  32
ENDBRANCH  30  31
ENDBRANCH  29  30
ENDBRANCH  28  29
ENDBRANCH  27  28
ENDBRANCH  26  27
ENDBRANCH  25  26
ENDBRANCH  24  25
ENDBRANCH  23  24
ENDBRANCH  22  23
ENDBRANCH   1  22
TORSDOF 33
ENDMDL
