MODEL 1
REMARK VINA RESULT:      -7.9      0.000      0.000
REMARK  Name = 
REMARK  5 active torsions:
REMARK  status: ('A' for Active; 'I' for Inactive)
REMARK    1  A    between atoms: N_2  and  C_4
REMARK    2  A    between atoms: C_4  and  C_5
REMARK    3  A    between atoms: C_5  and  C_6
REMARK    4  A    between atoms: C_19  and  C_20
REMARK    5  A    between atoms: C_20  and  C_21
REMARK                            x       y       z     vdW  Elec       q    Type
REMARK                         _______ _______ _______ _____ _____    ______ ____
ROOT
ATOM      1  C   UNL     1     -11.696  14.864  69.622  0.00  0.00    -0.025 C 
ATOM      2  C   UNL     1     -11.790  14.042  68.606  0.00  0.00    -0.002 C 
ATOM      3  C   UNL     1     -11.820  12.613  68.948  0.00  0.00    +0.033 A 
ATOM      4  C   UNL     1     -11.568  11.570  68.066  0.00  0.00    +0.139 A 
ATOM      5  C   UNL     1     -11.114  10.372  68.590  0.00  0.00    +0.037 A 
ATOM      6  C   UNL     1     -11.382  10.158  69.938  0.00  0.00    -0.001 A 
ATOM      7  C   UNL     1     -12.183  11.042  70.652  0.00  0.00    -0.011 A 
ATOM      8  O   UNL     1     -11.629  11.622  66.691  0.00  0.00    -0.471 OA
ATOM      9  C   UNL     1     -12.212  12.599  65.848  0.00  0.00    +0.232 C 
ATOM     10  C   UNL     1     -11.643  13.958  66.096  0.00  0.00    +0.021 A 
ATOM     11  C   UNL     1     -11.503  14.675  64.928  0.00  0.00    -0.001 A 
ATOM     12  C   UNL     1     -10.670  15.784  64.986  0.00  0.00    -0.000 A 
ATOM     13  C   UNL     1     -10.304  16.349  66.202  0.00  0.00    -0.000 A 
ATOM     14  C   UNL     1     -10.932  15.880  67.349  0.00  0.00    -0.000 A 
ATOM     15  C   UNL     1     -12.100  12.383  70.290  0.00  0.00    -0.001 A 
ATOM     16  C   UNL     1     -11.606  14.666  67.291  0.00  0.00    -0.001 A 
ENDROOT
BRANCH   1  17
ATOM     17  C   UNL     1     -12.070  14.386  70.986  0.00  0.00    +0.043 C 
BRANCH  17  18
ATOM     18  C   UNL     1     -11.624  15.327  72.069  0.00  0.00    +0.077 C 
BRANCH  18  20
ATOM     19  C   UNL     1     -12.508  15.621  74.294  0.00  0.00    +0.090 C 
ATOM     20  N   UNL     1     -12.696  15.827  72.884  0.00  0.00    -0.270 NA
ATOM     21  C   UNL     1     -14.007  15.470  72.414  0.00  0.00    +0.090 C 
ENDBRANCH  18  20
ENDBRANCH  17  18
ENDBRANCH   1  17
BRANCH   7  22
ATOM     22  C   UNL     1     -13.119  10.569  71.721  0.00  0.00    +0.140 C 
BRANCH  22  23
ATOM     23  C   UNL     1     -13.142   9.073  71.728  0.00  0.00    +0.369 C 
ATOM     24  O   UNL     1     -14.365   8.475  71.410  0.00  0.00    -0.245 OA
ATOM     25  O   UNL     1     -12.440   8.446  72.579  0.00  0.00    -0.245 OA
ENDBRANCH  22  23
ENDBRANCH   7  22
TORSDOF 5
ENDMDL
MODEL 2
REMARK VINA RESULT:      -7.6      2.475      6.238
REMARK  Name = 
REMARK  5 active torsions:
REMARK  status: ('A' for Active; 'I' for Inactive)
REMARK    1  A    between atoms: N_2  and  C_4
REMARK    2  A    between atoms: C_4  and  C_5
REMARK    3  A    between atoms: C_5  and  C_6
REMARK    4  A    between atoms: C_19  and  C_20
REMARK    5  A    between atoms: C_20  and  C_21
REMARK                            x       y       z     vdW  Elec       q    Type
REMARK                         _______ _______ _______ _____ _____    ______ ____
ROOT
ATOM      1  C   UNL     1     -12.057  14.099  69.555  0.00  0.00    -0.025 C 
ATOM      2  C   UNL     1     -11.676  12.928  69.105  0.00  0.00    -0.002 C 
ATOM      3  C   UNL     1     -11.416  12.858  67.661  0.00  0.00    +0.033 A 
ATOM      4  C   UNL     1     -11.347  11.689  66.913  0.00  0.00    +0.139 A 
ATOM      5  C   UNL     1     -11.627  11.767  65.560  0.00  0.00    +0.037 A 
ATOM      6  C   UNL     1     -11.499  13.027  64.984  0.00  0.00    -0.001 A 
ATOM      7  C   UNL     1     -10.982  14.092  65.714  0.00  0.00    -0.011 A 
ATOM      8  O   UNL     1     -11.120  10.418  67.391  0.00  0.00    -0.471 OA
ATOM      9  C   UNL     1     -10.631  10.000  68.653  0.00  0.00    +0.232 C 
ATOM     10  C   UNL     1     -11.478  10.511  69.774  0.00  0.00    +0.021 A 
ATOM     11  C   UNL     1     -11.601   9.584  70.785  0.00  0.00    -0.001 A 
ATOM     12  C   UNL     1     -12.632   9.798  71.690  0.00  0.00    -0.000 A 
ATOM     13  C   UNL     1     -13.254  11.036  71.796  0.00  0.00    -0.000 A 
ATOM     14  C   UNL     1     -12.702  12.101  71.095  0.00  0.00    -0.000 A 
ATOM     15  C   UNL     1     -11.274  14.109  67.074  0.00  0.00    -0.001 A 
ATOM     16  C   UNL     1     -11.805  11.829  70.068  0.00  0.00    -0.001 A 
ENDROOT
BRANCH   1  17
ATOM     17  C   UNL     1     -11.778  15.319  68.742  0.00  0.00    +0.043 C 
BRANCH  17  18
ATOM     18  C   UNL     1     -10.973  16.340  69.494  0.00  0.00    +0.077 C 
BRANCH  18  20
ATOM     19  C   UNL     1      -8.643  16.260  68.875  0.00  0.00    +0.090 C 
ATOM     20  N   UNL     1      -9.909  16.924  68.726  0.00  0.00    -0.270 NA
ATOM     21  C   UNL     1      -9.830  18.356  68.825  0.00  0.00    +0.090 C 
ENDBRANCH  18  20
ENDBRANCH  17  18
ENDBRANCH   1  17
BRANCH   7  22
ATOM     22  C   UNL     1     -10.119  15.138  65.078  0.00  0.00    +0.140 C 
BRANCH  22  23
ATOM     23  C   UNL     1     -10.880  16.424  65.002  0.00  0.00    +0.369 C 
ATOM     24  O   UNL     1     -11.695  16.591  63.877  0.00  0.00    -0.245 OA
ATOM     25  O   UNL     1     -10.348  17.487  65.444  0.00  0.00    -0.245 OA
ENDBRANCH  22  23
ENDBRANCH   7  22
TORSDOF 5
ENDMDL
MODEL 3
REMARK VINA RESULT:      -7.5      1.746      5.939
REMARK  Name = 
REMARK  5 active torsions:
REMARK  status: ('A' for Active; 'I' for Inactive)
REMARK    1  A    between atoms: N_2  and  C_4
REMARK    2  A    between atoms: C_4  and  C_5
REMARK    3  A    between atoms: C_5  and  C_6
REMARK    4  A    between atoms: C_19  and  C_20
REMARK    5  A    between atoms: C_20  and  C_21
REMARK                            x       y       z     vdW  Elec       q    Type
REMARK                         _______ _______ _______ _____ _____    ______ ____
ROOT
ATOM      1  C   UNL     1     -12.781  12.679  70.980  0.00  0.00    -0.025 C 
ATOM      2  C   UNL     1     -12.075  11.843  70.259  0.00  0.00    -0.002 C 
ATOM      3  C   UNL     1     -11.740  12.300  68.904  0.00  0.00    +0.033 A 
ATOM      4  C   UNL     1     -11.321  11.483  67.861  0.00  0.00    +0.139 A 
ATOM      5  C   UNL     1     -11.549  11.916  66.566  0.00  0.00    +0.037 A 
ATOM      6  C   UNL     1     -11.743  13.284  66.408  0.00  0.00    -0.001 A 
ATOM      7  C   UNL     1     -11.570  14.155  67.478  0.00  0.00    -0.011 A 
ATOM      8  O   UNL     1     -10.777  10.223  67.970  0.00  0.00    -0.471 OA
ATOM      9  C   UNL     1     -10.252   9.559  69.105  0.00  0.00    +0.232 C 
ATOM     10  C   UNL     1     -11.256   9.464  70.208  0.00  0.00    +0.021 A 
ATOM     11  C   UNL     1     -11.168   8.264  70.878  0.00  0.00    -0.001 A 
ATOM     12  C   UNL     1     -12.258   7.920  71.666  0.00  0.00    -0.000 A 
ATOM     13  C   UNL     1     -13.198   8.869  72.050  0.00  0.00    -0.000 A 
ATOM     14  C   UNL     1     -12.925  10.202  71.769  0.00  0.00    -0.000 A 
ATOM     15  C   UNL     1     -11.918  13.668  68.734  0.00  0.00    -0.001 A 
ATOM     16  C   UNL     1     -11.943  10.498  70.832  0.00  0.00    -0.001 A 
ENDROOT
BRANCH   1  17
ATOM     17  C   UNL     1     -12.807  14.124  70.605  0.00  0.00    +0.043 C 
BRANCH  17  18
ATOM     18  C   UNL     1     -13.655  14.945  71.534  0.00  0.00    +0.077 C 
BRANCH  18  20
ATOM     19  C   UNL     1     -11.663  16.289  71.739  0.00  0.00    +0.090 C 
ATOM     20  N   UNL     1     -12.910  15.882  72.328  0.00  0.00    -0.270 NA
ATOM     21  C   UNL     1     -12.808  15.525  73.717  0.00  0.00    +0.090 C 
ENDBRANCH  18  20
ENDBRANCH  17  18
ENDBRANCH   1  17
BRANCH   7  22
ATOM     22  C   UNL     1     -10.996  15.526  67.293  0.00  0.00    +0.140 C 
BRANCH  22  23
ATOM     23  C   UNL     1     -10.260  15.579  65.992  0.00  0.00    +0.369 C 
ATOM     24  O   UNL     1      -8.875  15.400  66.062  0.00  0.00    -0.245 OA
ATOM     25  O   UNL     1     -10.656  16.374  65.086  0.00  0.00    -0.245 OA
ENDBRANCH  22  23
ENDBRANCH   7  22
TORSDOF 5
ENDMDL
MODEL 4
REMARK VINA RESULT:      -7.1      3.125      5.449
REMARK  Name = 
REMARK  5 active torsions:
REMARK  status: ('A' for Active; 'I' for Inactive)
REMARK    1  A    between atoms: N_2  and  C_4
REMARK    2  A    between atoms: C_4  and  C_5
REMARK    3  A    between atoms: C_5  and  C_6
REMARK    4  A    between atoms: C_19  and  C_20
REMARK    5  A    between atoms: C_20  and  C_21
REMARK                            x       y       z     vdW  Elec       q    Type
REMARK                         _______ _______ _______ _____ _____    ______ ____
ROOT
ATOM      1  C   UNL     1     -10.924   9.942  67.272  0.00  0.00    -0.025 C 
ATOM      2  C   UNL     1     -11.207  10.992  68.004  0.00  0.00    -0.002 C 
ATOM      3  C   UNL     1     -11.493  10.720  69.419  0.00  0.00    +0.033 A 
ATOM      4  C   UNL     1     -12.142  11.588  70.290  0.00  0.00    +0.139 A 
ATOM      5  C   UNL     1     -12.801  11.043  71.377  0.00  0.00    +0.037 A 
ATOM      6  C   UNL     1     -12.388   9.772  71.764  0.00  0.00    -0.001 A 
ATOM      7  C   UNL     1     -11.285   9.172  71.169  0.00  0.00    -0.011 A 
ATOM      8  O   UNL     1     -12.286  12.949  70.139  0.00  0.00    -0.471 OA
ATOM      9  C   UNL     1     -11.611  13.840  69.269  0.00  0.00    +0.232 C 
ATOM     10  C   UNL     1     -11.764  13.440  67.836  0.00  0.00    +0.021 A 
ATOM     11  C   UNL     1     -11.896  14.535  67.012  0.00  0.00    -0.001 A 
ATOM     12  C   UNL     1     -12.395  14.287  65.740  0.00  0.00    -0.000 A 
ATOM     13  C   UNL     1     -12.406  13.004  65.207  0.00  0.00    -0.000 A 
ATOM     14  C   UNL     1     -11.748  12.004  65.912  0.00  0.00    -0.000 A 
ATOM     15  C   UNL     1     -11.075   9.458  69.824  0.00  0.00    -0.001 A 
ATOM     16  C   UNL     1     -11.429  12.228  67.245  0.00  0.00    -0.001 A 
ENDROOT
BRANCH   1  17
ATOM     17  C   UNL     1     -10.476   8.685  67.942  0.00  0.00    +0.043 C 
BRANCH  17  18
ATOM     18  C   UNL     1     -10.252   7.563  66.969  0.00  0.00    +0.077 C 
BRANCH  18  20
ATOM     19  C   UNL     1     -11.036   6.094  68.714  0.00  0.00    +0.090 C 
ATOM     20  N   UNL     1     -10.953   6.354  67.302  0.00  0.00    -0.270 NA
ATOM     21  C   UNL     1     -10.560   5.212  66.523  0.00  0.00    +0.090 C 
ENDBRANCH  18  20
ENDBRANCH  17  18
ENDBRANCH   1  17
BRANCH   7  22
ATOM     22  C   UNL     1     -10.346   8.302  71.948  0.00  0.00    +0.140 C 
BRANCH  22  23
ATOM     23  C   UNL     1     -11.138   7.308  72.738  0.00  0.00    +0.369 C 
ATOM     24  O   UNL     1     -10.563   6.878  73.938  0.00  0.00    -0.245 OA
ATOM     25  O   UNL     1     -11.824   6.434  72.125  0.00  0.00    -0.245 OA
ENDBRANCH  22  23
ENDBRANCH   7  22
TORSDOF 5
ENDMDL
MODEL 5
REMARK VINA RESULT:      -6.9      3.179      7.565
REMARK  Name = 
REMARK  5 active torsions:
REMARK  status: ('A' for Active; 'I' for Inactive)
REMARK    1  A    between atoms: N_2  and  C_4
REMARK    2  A    between atoms: C_4  and  C_5
REMARK    3  A    between atoms: C_5  and  C_6
REMARK    4  A    between atoms: C_19  and  C_20
REMARK    5  A    between atoms: C_20  and  C_21
REMARK                            x       y       z     vdW  Elec       q    Type
REMARK                         _______ _______ _______ _____ _____    ______ ____
ROOT
ATOM      1  C   UNL     1     -10.433   9.841  67.723  0.00  0.00    -0.025 C 
ATOM      2  C   UNL     1     -11.124  10.320  68.728  0.00  0.00    -0.002 C 
ATOM      3  C   UNL     1     -11.553  11.719  68.593  0.00  0.00    +0.033 A 
ATOM      4  C   UNL     1     -11.977  12.534  69.635  0.00  0.00    +0.139 A 
ATOM      5  C   UNL     1     -11.840  13.903  69.485  0.00  0.00    +0.037 A 
ATOM      6  C   UNL     1     -11.733  14.363  68.177  0.00  0.00    -0.001 A 
ATOM      7  C   UNL     1     -11.902  13.497  67.103  0.00  0.00    -0.011 A 
ATOM      8  O   UNL     1     -12.440  12.123  70.865  0.00  0.00    -0.471 OA
ATOM      9  C   UNL     1     -12.869  10.841  71.289  0.00  0.00    +0.232 C 
ATOM     10  C   UNL     1     -11.805   9.808  71.095  0.00  0.00    +0.021 A 
ATOM     11  C   UNL     1     -11.791   8.892  72.123  0.00  0.00    -0.001 A 
ATOM     12  C   UNL     1     -10.643   8.118  72.237  0.00  0.00    -0.000 A 
ATOM     13  C   UNL     1      -9.742   8.005  71.186  0.00  0.00    -0.000 A 
ATOM     14  C   UNL     1     -10.105   8.549  69.960  0.00  0.00    -0.000 A 
ATOM     15  C   UNL     1     -11.464  12.190  67.288  0.00  0.00    -0.001 A 
ATOM     16  C   UNL     1     -11.149   9.465  69.920  0.00  0.00    -0.001 A 
ENDROOT
BRANCH   1  17
ATOM     17  C   UNL     1     -10.509  10.519  66.395  0.00  0.00    +0.043 C 
BRANCH  17  18
ATOM     18  C   UNL     1      -9.929   9.685  65.288  0.00  0.00    +0.077 C 
BRANCH  18  20
ATOM     19  C   UNL     1      -9.742  10.611  63.069  0.00  0.00    +0.090 C 
ATOM     20  N   UNL     1      -9.129  10.430  64.357  0.00  0.00    -0.270 NA
ATOM     21  C   UNL     1      -7.756  10.007  64.293  0.00  0.00    +0.090 C 
ENDBRANCH  18  20
ENDBRANCH  17  18
ENDBRANCH   1  17
BRANCH   7  22
ATOM     22  C   UNL     1     -12.563  13.936  65.832  0.00  0.00    +0.140 C 
BRANCH  22  23
ATOM     23  C   UNL     1     -11.805  13.381  64.667  0.00  0.00    +0.369 C 
ATOM     24  O   UNL     1     -10.500  13.853  64.501  0.00  0.00    -0.245 OA
ATOM     25  O   UNL     1     -12.426  13.121  63.592  0.00  0.00    -0.245 OA
ENDBRANCH  22  23
ENDBRANCH   7  22
TORSDOF 5
ENDMDL
MODEL 6
REMARK VINA RESULT:      -6.8      2.960      7.186
REMARK  Name = 
REMARK  5 active torsions:
REMARK  status: ('A' for Active; 'I' for Inactive)
REMARK    1  A    between atoms: N_2  and  C_4
REMARK    2  A    between atoms: C_4  and  C_5
REMARK    3  A    between atoms: C_5  and  C_6
REMARK    4  A    between atoms: C_19  and  C_20
REMARK    5  A    between atoms: C_20  and  C_21
REMARK                            x       y       z     vdW  Elec       q    Type
REMARK                         _______ _______ _______ _____ _____    ______ ____
ROOT
ATOM      1  C   UNL     1     -10.705  11.912  67.973  0.00  0.00    -0.025 C 
ATOM      2  C   UNL     1     -11.373  12.384  68.997  0.00  0.00    -0.002 C 
ATOM      3  C   UNL     1     -11.283  13.836  69.197  0.00  0.00    +0.033 A 
ATOM      4  C   UNL     1     -11.599  14.507  70.373  0.00  0.00    +0.139 A 
ATOM      5  C   UNL     1     -10.992  15.728  70.607  0.00  0.00    +0.037 A 
ATOM      6  C   UNL     1     -10.497  16.386  69.486  0.00  0.00    -0.001 A 
ATOM      7  C   UNL     1     -10.740  15.893  68.209  0.00  0.00    -0.011 A 
ATOM      8  O   UNL     1     -12.393  14.041  71.397  0.00  0.00    -0.471 OA
ATOM      9  C   UNL     1     -13.292  12.947  71.420  0.00  0.00    +0.232 C 
ATOM     10  C   UNL     1     -12.614  11.663  71.064  0.00  0.00    +0.021 A 
ATOM     11  C   UNL     1     -13.095  10.608  71.807  0.00  0.00    -0.001 A 
ATOM     12  C   UNL     1     -12.310   9.462  71.821  0.00  0.00    -0.000 A 
ATOM     13  C   UNL     1     -11.318   9.255  70.872  0.00  0.00    -0.000 A 
ATOM     14  C   UNL     1     -11.246  10.143  69.805  0.00  0.00    -0.000 A 
ATOM     15  C   UNL     1     -10.801  14.510  68.081  0.00  0.00    -0.001 A 
ATOM     16  C   UNL     1     -11.901  11.363  69.909  0.00  0.00    -0.001 A 
ENDROOT
BRANCH   1  17
ATOM     17  C   UNL     1     -10.303  12.838  66.873  0.00  0.00    +0.043 C 
BRANCH  17  18
ATOM     18  C   UNL     1     -10.242  12.154  65.537  0.00  0.00    +0.077 C 
BRANCH  18  20
ATOM     19  C   UNL     1     -12.415  13.094  65.078  0.00  0.00    +0.090 C 
ATOM     20  N   UNL     1     -11.132  12.711  64.557  0.00  0.00    -0.270 NA
ATOM     21  C   UNL     1     -11.202  11.959  63.333  0.00  0.00    +0.090 C 
ENDBRANCH  18  20
ENDBRANCH  17  18
ENDBRANCH   1  17
BRANCH   7  22
ATOM     22  C   UNL     1     -10.969  16.805  67.043  0.00  0.00    +0.140 C 
BRANCH  22  23
ATOM     23  C   UNL     1     -10.192  16.304  65.866  0.00  0.00    +0.369 C 
ATOM     24  O   UNL     1      -8.835  16.639  65.838  0.00  0.00    -0.245 OA
ATOM     25  O   UNL     1     -10.755  16.242  64.731  0.00  0.00    -0.245 OA
ENDBRANCH  22  23
ENDBRANCH   7  22
TORSDOF 5
ENDMDL
MODEL 7
REMARK VINA RESULT:      -6.8      1.992      2.948
REMARK  Name = 
REMARK  5 active torsions:
REMARK  status: ('A' for Active; 'I' for Inactive)
REMARK    1  A    between atoms: N_2  and  C_4
REMARK    2  A    between atoms: C_4  and  C_5
REMARK    3  A    between atoms: C_5  and  C_6
REMARK    4  A    between atoms: C_19  and  C_20
REMARK    5  A    between atoms: C_20  and  C_21
REMARK                            x       y       z     vdW  Elec       q    Type
REMARK                         _______ _______ _______ _____ _____    ______ ____
ROOT
ATOM      1  C   UNL     1     -11.093  16.004  69.964  0.00  0.00    -0.025 C 
ATOM      2  C   UNL     1     -10.858  15.897  68.679  0.00  0.00    -0.002 C 
ATOM      3  C   UNL     1     -10.666  14.528  68.182  0.00  0.00    +0.033 A 
ATOM      4  C   UNL     1     -10.075  14.188  66.971  0.00  0.00    +0.139 A 
ATOM      5  C   UNL     1      -9.488  12.940  66.863  0.00  0.00    +0.037 A 
ATOM      6  C   UNL     1      -9.926  11.982  67.772  0.00  0.00    -0.001 A 
ATOM      7  C   UNL     1     -10.988  12.248  68.628  0.00  0.00    -0.011 A 
ATOM      8  O   UNL     1      -9.921  15.005  65.873  0.00  0.00    -0.471 OA
ATOM      9  C   UNL     1     -10.538  16.244  65.573  0.00  0.00    +0.232 C 
ATOM     10  C   UNL     1     -10.292  17.260  66.642  0.00  0.00    +0.021 A 
ATOM     11  C   UNL     1     -10.106  18.520  66.116  0.00  0.00    -0.001 A 
ATOM     12  C   UNL     1      -9.525  19.456  66.961  0.00  0.00    -0.000 A 
ATOM     13  C   UNL     1      -9.478  19.257  68.336  0.00  0.00    -0.000 A 
ATOM     14  C   UNL     1     -10.181  18.178  68.858  0.00  0.00    -0.000 A 
ATOM     15  C   UNL     1     -11.109  13.559  69.074  0.00  0.00    -0.001 A 
ATOM     16  C   UNL     1     -10.588  17.167  67.996  0.00  0.00    -0.001 A 
ENDROOT
BRANCH   1  17
ATOM     17  C   UNL     1     -11.584  14.813  70.718  0.00  0.00    +0.043 C 
BRANCH  17  18
ATOM     18  C   UNL     1     -11.753  15.090  72.185  0.00  0.00    +0.077 C 
BRANCH  18  20
ATOM     19  C   UNL     1     -13.523  13.453  72.239  0.00  0.00    +0.090 C 
ATOM     20  N   UNL     1     -13.043  14.726  72.701  0.00  0.00    -0.270 NA
ATOM     21  C   UNL     1     -14.021  15.777  72.631  0.00  0.00    +0.090 C 
ENDBRANCH  18  20
ENDBRANCH  17  18
ENDBRANCH   1  17
BRANCH   7  22
ATOM     22  C   UNL     1     -11.976  11.188  69.010  0.00  0.00    +0.140 C 
BRANCH  22  23
ATOM     23  C   UNL     1     -11.645  10.679  70.378  0.00  0.00    +0.369 C 
ATOM     24  O   UNL     1     -10.473   9.924  70.485  0.00  0.00    -0.245 OA
ATOM     25  O   UNL     1     -12.586  10.327  71.153  0.00  0.00    -0.245 OA
ENDBRANCH  22  23
ENDBRANCH   7  22
TORSDOF 5
ENDMDL
MODEL 8
REMARK VINA RESULT:      -6.8      3.099      6.427
REMARK  Name = 
REMARK  5 active torsions:
REMARK  status: ('A' for Active; 'I' for Inactive)
REMARK    1  A    between atoms: N_2  and  C_4
REMARK    2  A    between atoms: C_4  and  C_5
REMARK    3  A    between atoms: C_5  and  C_6
REMARK    4  A    between atoms: C_19  and  C_20
REMARK    5  A    between atoms: C_20  and  C_21
REMARK                            x       y       z     vdW  Elec       q    Type
REMARK                         _______ _______ _______ _____ _____    ______ ____
ROOT
ATOM      1  C   UNL     1     -11.272  10.696  68.271  0.00  0.00    -0.025 C 
ATOM      2  C   UNL     1     -10.712  10.504  67.102  0.00  0.00    -0.002 C 
ATOM      3  C   UNL     1     -11.021  11.510  66.078  0.00  0.00    +0.033 A 
ATOM      4  C   UNL     1     -10.842  11.346  64.709  0.00  0.00    +0.139 A 
ATOM      5  C   UNL     1     -11.629  12.100  63.857  0.00  0.00    +0.037 A 
ATOM      6  C   UNL     1     -12.180  13.255  64.401  0.00  0.00    -0.001 A 
ATOM      7  C   UNL     1     -11.830  13.676  65.679  0.00  0.00    -0.011 A 
ATOM      8  O   UNL     1     -10.020  10.430  64.091  0.00  0.00    -0.471 OA
ATOM      9  C   UNL     1      -8.971   9.646  64.631  0.00  0.00    +0.232 C 
ATOM     10  C   UNL     1      -9.442   8.792  65.764  0.00  0.00    +0.021 A 
ATOM     11  C   UNL     1      -8.834   7.557  65.760  0.00  0.00    -0.001 A 
ATOM     12  C   UNL     1      -9.442   6.573  66.529  0.00  0.00    -0.000 A 
ATOM     13  C   UNL     1     -10.364   6.895  67.516  0.00  0.00    -0.000 A 
ATOM     14  C   UNL     1     -10.533   8.238  67.831  0.00  0.00    -0.000 A 
ATOM     15  C   UNL     1     -11.562  12.675  66.608  0.00  0.00    -0.001 A 
ATOM     16  C   UNL     1     -10.068   9.196  66.937  0.00  0.00    -0.001 A 
ENDROOT
BRANCH   1  17
ATOM     17  C   UNL     1     -11.772  12.057  68.626  0.00  0.00    +0.043 C 
BRANCH  17  18
ATOM     18  C   UNL     1     -12.070  12.197  70.092  0.00  0.00    +0.077 C 
BRANCH  18  20
ATOM     19  C   UNL     1     -13.179  14.029  71.201  0.00  0.00    +0.090 C 
ATOM     20  N   UNL     1     -11.977  13.546  70.578  0.00  0.00    -0.270 NA
ATOM     21  C   UNL     1     -11.395  14.469  69.643  0.00  0.00    +0.090 C 
ENDBRANCH  18  20
ENDBRANCH  17  18
ENDBRANCH   1  17
BRANCH   7  22
ATOM     22  C   UNL     1     -11.701  15.128  66.023  0.00  0.00    +0.140 C 
BRANCH  22  23
ATOM     23  C   UNL     1     -10.824  15.796  65.011  0.00  0.00    +0.369 C 
ATOM     24  O   UNL     1      -9.515  16.072  65.419  0.00  0.00    -0.245 OA
ATOM     25  O   UNL     1     -11.330  16.644  64.214  0.00  0.00    -0.245 OA
ENDBRANCH  22  23
ENDBRANCH   7  22
TORSDOF 5
ENDMDL
MODEL 9
REMARK VINA RESULT:      -6.7      2.815      5.166
REMARK  Name = 
REMARK  5 active torsions:
REMARK  status: ('A' for Active; 'I' for Inactive)
REMARK    1  A    between atoms: N_2  and  C_4
REMARK    2  A    between atoms: C_4  and  C_5
REMARK    3  A    between atoms: C_5  and  C_6
REMARK    4  A    between atoms: C_19  and  C_20
REMARK    5  A    between atoms: C_20  and  C_21
REMARK                            x       y       z     vdW  Elec       q    Type
REMARK                         _______ _______ _______ _____ _____    ______ ____
ROOT
ATOM      1  C   UNL     1     -11.922  10.819  69.628  0.00  0.00    -0.025 C 
ATOM      2  C   UNL     1     -11.058  11.546  68.962  0.00  0.00    -0.002 C 
ATOM      3  C   UNL     1     -11.232  13.000  69.078  0.00  0.00    +0.033 A 
ATOM      4  C   UNL     1     -10.686  13.946  68.218  0.00  0.00    +0.139 A 
ATOM      5  C   UNL     1     -11.326  15.168  68.108  0.00  0.00    +0.037 A 
ATOM      6  C   UNL     1     -12.155  15.518  69.168  0.00  0.00    -0.001 A 
ATOM      7  C   UNL     1     -12.208  14.737  70.317  0.00  0.00    -0.011 A 
ATOM      8  O   UNL     1      -9.613  13.768  67.374  0.00  0.00    -0.471 OA
ATOM      9  C   UNL     1      -8.638  12.741  67.353  0.00  0.00    +0.232 C 
ATOM     10  C   UNL     1      -9.260  11.389  67.209  0.00  0.00    +0.021 A 
ATOM     11  C   UNL     1      -8.504  10.561  66.409  0.00  0.00    -0.001 A 
ATOM     12  C   UNL     1      -9.144   9.430  65.920  0.00  0.00    -0.000 A 
ATOM     13  C   UNL     1     -10.325   8.967  66.487  0.00  0.00    -0.000 A 
ATOM     14  C   UNL     1     -10.756   9.566  67.665  0.00  0.00    -0.000 A 
ATOM     15  C   UNL     1     -12.049  13.366  70.141  0.00  0.00    -0.001 A 
ATOM     16  C   UNL     1     -10.216  10.795  68.024  0.00  0.00    -0.001 A 
ENDROOT
BRANCH   1  17
ATOM     17  C   UNL     1     -12.682  11.437  70.754  0.00  0.00    +0.043 C 
BRANCH  17  18
ATOM     18  C   UNL     1     -12.898  10.483  71.895  0.00  0.00    +0.077 C 
BRANCH  18  20
ATOM     19  C   UNL     1     -14.183   8.475  71.526  0.00  0.00    +0.090 C 
ATOM     20  N   UNL     1     -12.888   9.100  71.507  0.00  0.00    -0.270 NA
ATOM     21  C   UNL     1     -11.857   8.320  72.135  0.00  0.00    +0.090 C 
ENDBRANCH  18  20
ENDBRANCH  17  18
ENDBRANCH   1  17
BRANCH   7  22
ATOM     22  C   UNL     1     -12.377  15.344  71.676  0.00  0.00    +0.140 C 
BRANCH  22  23
ATOM     23  C   UNL     1     -13.777  15.106  72.149  0.00  0.00    +0.369 C 
ATOM     24  O   UNL     1     -14.014  13.877  72.773  0.00  0.00    -0.245 OA
ATOM     25  O   UNL     1     -14.747  15.562  71.470  0.00  0.00    -0.245 OA
ENDBRANCH  22  23
ENDBRANCH   7  22
TORSDOF 5
ENDMDL
