MODEL 1
REMARK VINA RESULT:      -6.5      0.000      0.000
REMARK  Name = 
REMARK  4 active torsions:
REMARK  status: ('A' for Active; 'I' for Inactive)
REMARK    1  A    between atoms: C_9  and  O_10
REMARK    2  A    between atoms: O_10  and  C_11
REMARK    3  A    between atoms: C_11  and  C_13
REMARK    4  A    between atoms: C_13  and  C_15
REMARK                            x       y       z     vdW  Elec       q    Type
REMARK                         _______ _______ _______ _____ _____    ______ ____
ROOT
ATOM      1  O   UNL     1     -10.880  15.101  67.895  0.00  0.00    -0.450 OA
ENDROOT
BRANCH   1   6
ATOM      2  C   UNL     1     -10.725  11.629  65.042  0.00  0.00    +0.170 C 
ATOM      3  N   UNL     1     -10.646  12.522  65.650  0.00  0.00    +0.298 N 
ATOM      4  C   UNL     1     -11.892  13.484  65.502  0.00  0.00    +0.062 C 
ATOM      5  C   UNL     1     -12.364  13.364  67.037  0.00  0.00    +0.099 C 
ATOM      6  C   UNL     1     -11.528  14.649  66.796  0.00  0.00    +0.180 C 
ATOM      7  C   UNL     1     -10.881  14.925  65.492  0.00  0.00    +0.099 C 
ATOM      8  C   UNL     1     -12.575  12.295  64.674  0.00  0.00    +0.061 C 
ATOM      9  C   UNL     1     -11.764  13.267  63.728  0.00  0.00    +0.061 C 
ATOM     10  C   UNL     1     -10.387  13.643  64.571  0.00  0.00    +0.062 C 
ATOM     11  C   UNL     1      -9.713  12.813  66.566  0.00  0.00    +0.170 C 
ENDBRANCH   1   6
BRANCH   1  12
ATOM     12  C   UNL     1     -11.402  16.089  68.704  0.00  0.00    +0.352 C 
ATOM     13  O   UNL     1     -11.184  17.271  68.321  0.00  0.00    -0.247 OA
BRANCH  12  14
ATOM     14  C   UNL     1     -10.691  15.722  70.120  0.00  0.00    +0.272 C 
ATOM     15  O   UNL     1     -10.860  14.227  69.871  0.00  0.00    -0.206 OA
BRANCH  14  16
ATOM     16  C   UNL     1     -12.089  15.837  70.918  0.00  0.00    +0.019 A 
ATOM     17  C   UNL     1     -13.132  15.055  70.568  0.00  0.00    -0.001 A 
ATOM     18  C   UNL     1     -14.228  15.134  71.428  0.00  0.00    -0.000 A 
ATOM     19  C   UNL     1     -13.896  15.217  72.776  0.00  0.00    -0.000 A 
ATOM     20  C   UNL     1     -12.764  15.938  73.140  0.00  0.00    -0.000 A 
ATOM     21  C   UNL     1     -11.784  16.213  72.201  0.00  0.00    -0.001 A 
ENDBRANCH  14  16
ENDBRANCH  12  14
ENDBRANCH   1  12
TORSDOF 4
ENDMDL
MODEL 2
REMARK VINA RESULT:      -6.4      3.439      6.868
REMARK  Name = 
REMARK  4 active torsions:
REMARK  status: ('A' for Active; 'I' for Inactive)
REMARK    1  A    between atoms: C_9  and  O_10
REMARK    2  A    between atoms: O_10  and  C_11
REMARK    3  A    between atoms: C_11  and  C_13
REMARK    4  A    between atoms: C_13  and  C_15
REMARK                            x       y       z     vdW  Elec       q    Type
REMARK                         _______ _______ _______ _____ _____    ______ ____
ROOT
ATOM      1  O   UNL     1     -10.537  16.491  66.107  0.00  0.00    -0.450 OA
ENDROOT
BRANCH   1   6
ATOM      2  C   UNL     1      -8.169  19.099  68.901  0.00  0.00    +0.170 C 
ATOM      3  N   UNL     1      -8.863  18.539  68.287  0.00  0.00    +0.298 N 
ATOM      4  C   UNL     1      -8.755  18.895  66.750  0.00  0.00    +0.062 C 
ATOM      5  C   UNL     1      -8.289  17.426  66.282  0.00  0.00    +0.099 C 
ATOM      6  C   UNL     1      -9.813  17.635  66.074  0.00  0.00    +0.180 C 
ATOM      7  C   UNL     1     -10.502  18.863  66.536  0.00  0.00    +0.099 C 
ATOM      8  C   UNL     1      -7.449  19.732  67.146  0.00  0.00    +0.061 C 
ATOM      9  C   UNL     1      -8.750  20.624  67.220  0.00  0.00    +0.061 C 
ATOM     10  C   UNL     1      -9.914  19.639  67.873  0.00  0.00    +0.062 C 
ATOM     11  C   UNL     1      -9.664  17.532  68.660  0.00  0.00    +0.170 C 
ENDBRANCH   1   6
BRANCH   1  12
ATOM     12  C   UNL     1     -10.913  15.825  64.958  0.00  0.00    +0.352 C 
ATOM     13  O   UNL     1     -11.440  16.543  64.065  0.00  0.00    -0.247 OA
BRANCH  12  14
ATOM     14  C   UNL     1     -11.924  14.712  65.579  0.00  0.00    +0.272 C 
ATOM     15  O   UNL     1     -11.077  14.577  66.840  0.00  0.00    -0.206 OA
BRANCH  14  16
ATOM     16  C   UNL     1     -11.153  13.510  64.826  0.00  0.00    +0.019 A 
ATOM     17  C   UNL     1     -10.252  12.762  65.496  0.00  0.00    -0.001 A 
ATOM     18  C   UNL     1      -9.772  11.661  64.787  0.00  0.00    -0.000 A 
ATOM     19  C   UNL     1     -10.734  11.002  64.029  0.00  0.00    -0.000 A 
ATOM     20  C   UNL     1     -11.730  11.754  63.414  0.00  0.00    -0.000 A 
ATOM     21  C   UNL     1     -12.005  13.037  63.860  0.00  0.00    -0.001 A 
ENDBRANCH  14  16
ENDBRANCH  12  14
ENDBRANCH   1  12
TORSDOF 4
ENDMDL
MODEL 3
REMARK VINA RESULT:      -6.3      1.000      2.006
REMARK  Name = 
REMARK  4 active torsions:
REMARK  status: ('A' for Active; 'I' for Inactive)
REMARK    1  A    between atoms: C_9  and  O_10
REMARK    2  A    between atoms: O_10  and  C_11
REMARK    3  A    between atoms: C_11  and  C_13
REMARK    4  A    between atoms: C_13  and  C_15
REMARK                            x       y       z     vdW  Elec       q    Type
REMARK                         _______ _______ _______ _____ _____    ______ ____
ROOT
ATOM      1  O   UNL     1     -11.050  14.327  67.814  0.00  0.00    -0.450 OA
ENDROOT
BRANCH   1   6
ATOM      2  C   UNL     1     -10.298  12.703  63.689  0.00  0.00    +0.170 C 
ATOM      3  N   UNL     1     -10.555  13.206  64.613  0.00  0.00    +0.298 N 
ATOM      4  C   UNL     1     -11.554  12.373  65.513  0.00  0.00    +0.062 C 
ATOM      5  C   UNL     1     -10.537  12.192  66.748  0.00  0.00    +0.099 C 
ATOM      6  C   UNL     1     -11.525  13.364  66.990  0.00  0.00    +0.180 C 
ATOM      7  C   UNL     1     -12.483  13.804  65.949  0.00  0.00    +0.099 C 
ATOM      8  C   UNL     1     -11.310  11.172  64.483  0.00  0.00    +0.061 C 
ATOM      9  C   UNL     1     -12.527  12.075  64.038  0.00  0.00    +0.061 C 
ATOM     10  C   UNL     1     -12.053  13.631  64.361  0.00  0.00    +0.062 C 
ATOM     11  C   UNL     1     -10.036  14.338  65.106  0.00  0.00    +0.170 C 
ENDBRANCH   1   6
BRANCH   1  12
ATOM     12  C   UNL     1     -11.305  14.327  69.170  0.00  0.00    +0.352 C 
ATOM     13  O   UNL     1     -11.720  13.234  69.642  0.00  0.00    -0.247 OA
BRANCH  12  14
ATOM     14  C   UNL     1     -12.393  15.533  69.268  0.00  0.00    +0.272 C 
ATOM     15  O   UNL     1     -11.291  16.580  69.397  0.00  0.00    -0.206 OA
BRANCH  14  16
ATOM     16  C   UNL     1     -12.533  15.354  70.865  0.00  0.00    +0.019 A 
ATOM     17  C   UNL     1     -11.669  15.978  71.693  0.00  0.00    -0.001 A 
ATOM     18  C   UNL     1     -11.986  15.874  73.047  0.00  0.00    -0.000 A 
ATOM     19  C   UNL     1     -13.346  15.971  73.327  0.00  0.00    -0.000 A 
ATOM     20  C   UNL     1     -14.252  15.418  72.429  0.00  0.00    -0.000 A 
ATOM     21  C   UNL     1     -13.865  15.152  71.127  0.00  0.00    -0.001 A 
ENDBRANCH  14  16
ENDBRANCH  12  14
ENDBRANCH   1  12
TORSDOF 4
ENDMDL
MODEL 4
REMARK VINA RESULT:      -6.2      3.141      6.457
REMARK  Name = 
REMARK  4 active torsions:
REMARK  status: ('A' for Active; 'I' for Inactive)
REMARK    1  A    between atoms: C_9  and  O_10
REMARK    2  A    between atoms: O_10  and  C_11
REMARK    3  A    between atoms: C_11  and  C_13
REMARK    4  A    between atoms: C_13  and  C_15
REMARK                            x       y       z     vdW  Elec       q    Type
REMARK                         _______ _______ _______ _____ _____    ______ ____
ROOT
ATOM      1  O   UNL     1     -11.285  14.530  65.648  0.00  0.00    -0.450 OA
ENDROOT
BRANCH   1   6
ATOM      2  C   UNL     1      -8.881  17.012  68.525  0.00  0.00    +0.170 C 
ATOM      3  N   UNL     1      -9.556  16.532  67.827  0.00  0.00    +0.298 N 
ATOM      4  C   UNL     1      -8.920  16.323  66.395  0.00  0.00    +0.062 C 
ATOM      5  C   UNL     1      -8.981  14.714  66.431  0.00  0.00    +0.099 C 
ATOM      6  C   UNL     1     -10.181  15.313  65.650  0.00  0.00    +0.180 C 
ATOM      7  C   UNL     1     -10.412  16.775  65.576  0.00  0.00    +0.099 C 
ATOM      8  C   UNL     1      -7.538  16.786  67.059  0.00  0.00    +0.061 C 
ATOM      9  C   UNL     1      -8.341  18.017  66.478  0.00  0.00    +0.061 C 
ATOM     10  C   UNL     1      -9.929  17.713  66.850  0.00  0.00    +0.062 C 
ATOM     11  C   UNL     1     -10.761  16.005  68.080  0.00  0.00    +0.170 C 
ENDBRANCH   1   6
BRANCH   1  12
ATOM     12  C   UNL     1     -11.850  14.057  64.481  0.00  0.00    +0.352 C 
ATOM     13  O   UNL     1     -12.696  14.820  63.942  0.00  0.00    -0.247 OA
BRANCH  12  14
ATOM     14  C   UNL     1     -12.481  12.652  65.006  0.00  0.00    +0.272 C 
ATOM     15  O   UNL     1     -12.210  13.019  66.461  0.00  0.00    -0.206 OA
BRANCH  14  16
ATOM     16  C   UNL     1     -11.069  11.889  64.842  0.00  0.00    +0.019 A 
ATOM     17  C   UNL     1     -10.635  11.055  65.810  0.00  0.00    -0.001 A 
ATOM     18  C   UNL     1      -9.483  10.339  65.484  0.00  0.00    -0.000 A 
ATOM     19  C   UNL     1      -9.438   9.893  64.168  0.00  0.00    -0.000 A 
ATOM     20  C   UNL     1      -9.973  10.701  63.170  0.00  0.00    -0.000 A 
ATOM     21  C   UNL     1     -10.873  11.702  63.497  0.00  0.00    -0.001 A 
ENDBRANCH  14  16
ENDBRANCH  12  14
ENDBRANCH   1  12
TORSDOF 4
ENDMDL
MODEL 5
REMARK VINA RESULT:      -6.1      3.008      4.786
REMARK  Name = 
REMARK  4 active torsions:
REMARK  status: ('A' for Active; 'I' for Inactive)
REMARK    1  A    between atoms: C_9  and  O_10
REMARK    2  A    between atoms: O_10  and  C_11
REMARK    3  A    between atoms: C_11  and  C_13
REMARK    4  A    between atoms: C_13  and  C_15
REMARK                            x       y       z     vdW  Elec       q    Type
REMARK                         _______ _______ _______ _____ _____    ______ ____
ROOT
ATOM      1  O   UNL     1     -10.854  16.294  67.107  0.00  0.00    -0.450 OA
ENDROOT
BRANCH   1   6
ATOM      2  C   UNL     1     -10.709  12.812  64.266  0.00  0.00    +0.170 C 
ATOM      3  N   UNL     1     -10.895  13.641  64.938  0.00  0.00    +0.298 N 
ATOM      4  C   UNL     1     -10.473  13.334  66.431  0.00  0.00    +0.062 C 
ATOM      5  C   UNL     1      -9.340  14.475  66.509  0.00  0.00    +0.099 C 
ATOM      6  C   UNL     1     -10.676  14.952  67.139  0.00  0.00    +0.180 C 
ATOM      7  C   UNL     1     -11.904  14.125  67.084  0.00  0.00    +0.099 C 
ATOM      8  C   UNL     1      -9.800  12.000  65.852  0.00  0.00    +0.061 C 
ATOM      9  C   UNL     1     -11.304  11.754  66.269  0.00  0.00    +0.061 C 
ATOM     10  C   UNL     1     -12.116  13.118  65.789  0.00  0.00    +0.062 C 
ATOM     11  C   UNL     1     -11.299  14.879  64.624  0.00  0.00    +0.170 C 
ENDBRANCH   1   6
BRANCH   1  12
ATOM     12  C   UNL     1     -10.383  17.123  68.104  0.00  0.00    +0.352 C 
ATOM     13  O   UNL     1     -11.008  17.062  69.198  0.00  0.00    -0.247 OA
BRANCH  12  14
ATOM     14  C   UNL     1     -10.501  18.569  67.367  0.00  0.00    +0.272 C 
ATOM     15  O   UNL     1      -9.911  18.013  66.076  0.00  0.00    -0.206 OA
BRANCH  14  16
ATOM     16  C   UNL     1      -9.061  19.036  67.928  0.00  0.00    +0.019 A 
ATOM     17  C   UNL     1      -8.149  18.114  68.299  0.00  0.00    -0.001 A 
ATOM     18  C   UNL     1      -6.895  18.634  68.616  0.00  0.00    -0.000 A 
ATOM     19  C   UNL     1      -6.477  19.671  67.787  0.00  0.00    -0.000 A 
ATOM     20  C   UNL     1      -7.426  20.572  67.316  0.00  0.00    -0.000 A 
ATOM     21  C   UNL     1      -8.769  20.232  67.321  0.00  0.00    -0.001 A 
ENDBRANCH  14  16
ENDBRANCH  12  14
ENDBRANCH   1  12
TORSDOF 4
ENDMDL
MODEL 6
REMARK VINA RESULT:      -6.1      3.127      6.195
REMARK  Name = 
REMARK  4 active torsions:
REMARK  status: ('A' for Active; 'I' for Inactive)
REMARK    1  A    between atoms: C_9  and  O_10
REMARK    2  A    between atoms: O_10  and  C_11
REMARK    3  A    between atoms: C_11  and  C_13
REMARK    4  A    between atoms: C_13  and  C_15
REMARK                            x       y       z     vdW  Elec       q    Type
REMARK                         _______ _______ _______ _____ _____    ______ ____
ROOT
ATOM      1  O   UNL     1     -10.293  15.235  67.400  0.00  0.00    -0.450 OA
ENDROOT
BRANCH   1   6
ATOM      2  C   UNL     1      -8.319  19.163  66.454  0.00  0.00    +0.170 C 
ATOM      3  N   UNL     1      -8.734  18.232  66.821  0.00  0.00    +0.298 N 
ATOM      4  C   UNL     1     -10.311  18.260  66.936  0.00  0.00    +0.062 C 
ATOM      5  C   UNL     1     -10.566  17.100  65.849  0.00  0.00    +0.099 C 
ATOM      6  C   UNL     1     -10.616  16.546  67.298  0.00  0.00    +0.180 C 
ATOM      7  C   UNL     1     -10.296  17.395  68.469  0.00  0.00    +0.099 C 
ATOM      8  C   UNL     1     -10.234  19.661  66.163  0.00  0.00    +0.061 C 
ATOM      9  C   UNL     1     -10.157  19.860  67.729  0.00  0.00    +0.061 C 
ATOM     10  C   UNL     1      -9.201  18.620  68.276  0.00  0.00    +0.062 C 
ATOM     11  C   UNL     1      -8.092  17.078  67.046  0.00  0.00    +0.170 C 
ENDBRANCH   1   6
BRANCH   1  12
ATOM     12  C   UNL     1     -11.249  14.241  67.434  0.00  0.00    +0.352 C 
ATOM     13  O   UNL     1     -12.036  14.282  68.420  0.00  0.00    -0.247 OA
BRANCH  12  14
ATOM     14  C   UNL     1     -10.303  12.918  67.411  0.00  0.00    +0.272 C 
ATOM     15  O   UNL     1      -9.269  13.615  66.533  0.00  0.00    -0.206 OA
BRANCH  14  16
ATOM     16  C   UNL     1     -11.094  12.305  66.145  0.00  0.00    +0.019 A 
ATOM     17  C   UNL     1     -11.962  13.073  65.454  0.00  0.00    -0.001 A 
ATOM     18  C   UNL     1     -12.462  12.483  64.294  0.00  0.00    -0.000 A 
ATOM     19  C   UNL     1     -11.526  11.746  63.575  0.00  0.00    -0.000 A 
ATOM     20  C   UNL     1     -10.562  11.029  64.275  0.00  0.00    -0.000 A 
ATOM     21  C   UNL     1     -10.279  11.349  65.593  0.00  0.00    -0.001 A 
ENDBRANCH  14  16
ENDBRANCH  12  14
ENDBRANCH   1  12
TORSDOF 4
ENDMDL
MODEL 7
REMARK VINA RESULT:      -6.0      3.262      4.792
REMARK  Name = 
REMARK  4 active torsions:
REMARK  status: ('A' for Active; 'I' for Inactive)
REMARK    1  A    between atoms: C_9  and  O_10
REMARK    2  A    between atoms: O_10  and  C_11
REMARK    3  A    between atoms: C_11  and  C_13
REMARK    4  A    between atoms: C_13  and  C_15
REMARK                            x       y       z     vdW  Elec       q    Type
REMARK                         _______ _______ _______ _____ _____    ______ ____
ROOT
ATOM      1  O   UNL     1     -10.224  15.796  68.115  0.00  0.00    -0.450 OA
ENDROOT
BRANCH   1   6
ATOM      2  C   UNL     1      -7.655  19.484  68.190  0.00  0.00    +0.170 C 
ATOM      3  N   UNL     1      -8.343  18.659  68.052  0.00  0.00    +0.298 N 
ATOM      4  C   UNL     1      -7.626  17.326  67.594  0.00  0.00    +0.062 C 
ATOM      5  C   UNL     1      -8.019  16.480  68.905  0.00  0.00    +0.099 C 
ATOM      6  C   UNL     1      -8.989  16.191  67.729  0.00  0.00    +0.180 C 
ATOM      7  C   UNL     1      -8.906  16.935  66.450  0.00  0.00    +0.099 C 
ATOM      8  C   UNL     1      -6.251  18.093  67.886  0.00  0.00    +0.061 C 
ATOM      9  C   UNL     1      -6.724  18.304  66.394  0.00  0.00    +0.061 C 
ATOM     10  C   UNL     1      -8.368  18.499  66.483  0.00  0.00    +0.062 C 
ATOM     11  C   UNL     1      -9.649  18.620  68.345  0.00  0.00    +0.170 C 
ENDBRANCH   1   6
BRANCH   1  12
ATOM     12  C   UNL     1     -10.420  14.783  69.032  0.00  0.00    +0.352 C 
ATOM     13  O   UNL     1      -9.923  13.667  68.719  0.00  0.00    -0.247 OA
BRANCH  12  14
ATOM     14  C   UNL     1     -12.045  14.770  69.117  0.00  0.00    +0.272 C 
ATOM     15  O   UNL     1     -12.110  16.290  69.012  0.00  0.00    -0.206 OA
BRANCH  14  16
ATOM     16  C   UNL     1     -12.018  14.794  70.730  0.00  0.00    +0.019 A 
ATOM     17  C   UNL     1     -11.879  15.965  71.386  0.00  0.00    -0.001 A 
ATOM     18  C   UNL     1     -12.028  15.874  72.770  0.00  0.00    -0.000 A 
ATOM     19  C   UNL     1     -13.034  15.008  73.184  0.00  0.00    -0.000 A 
ATOM     20  C   UNL     1     -13.253  13.844  72.455  0.00  0.00    -0.000 A 
ATOM     21  C   UNL     1     -12.788  13.741  71.155  0.00  0.00    -0.001 A 
ENDBRANCH  14  16
ENDBRANCH  12  14
ENDBRANCH   1  12
TORSDOF 4
ENDMDL
MODEL 8
REMARK VINA RESULT:      -6.0      2.587      4.343
REMARK  Name = 
REMARK  4 active torsions:
REMARK  status: ('A' for Active; 'I' for Inactive)
REMARK    1  A    between atoms: C_9  and  O_10
REMARK    2  A    between atoms: O_10  and  C_11
REMARK    3  A    between atoms: C_11  and  C_13
REMARK    4  A    between atoms: C_13  and  C_15
REMARK                            x       y       z     vdW  Elec       q    Type
REMARK                         _______ _______ _______ _____ _____    ______ ____
ROOT
ATOM      1  O   UNL     1     -10.148  15.090  67.707  0.00  0.00    -0.450 OA
ENDROOT
BRANCH   1   6
ATOM      2  C   UNL     1     -12.408  12.653  64.679  0.00  0.00    +0.170 C 
ATOM      3  N   UNL     1     -11.915  13.140  65.511  0.00  0.00    +0.298 N 
ATOM      4  C   UNL     1     -10.338  13.051  65.432  0.00  0.00    +0.062 C 
ATOM      5  C   UNL     1     -10.099  14.639  65.309  0.00  0.00    +0.099 C 
ATOM      6  C   UNL     1      -9.908  14.145  66.768  0.00  0.00    +0.180 C 
ATOM      7  C   UNL     1     -10.188  12.743  67.159  0.00  0.00    +0.099 C 
ATOM      8  C   UNL     1     -10.552  12.461  63.959  0.00  0.00    +0.061 C 
ATOM      9  C   UNL     1     -10.522  11.312  65.043  0.00  0.00    +0.061 C 
ATOM     10  C   UNL     1     -11.362  11.917  66.339  0.00  0.00    +0.062 C 
ATOM     11  C   UNL     1     -12.471  13.885  66.475  0.00  0.00    +0.170 C 
ENDBRANCH   1   6
BRANCH   1  12
ATOM     12  C   UNL     1      -9.264  16.120  67.957  0.00  0.00    +0.352 C 
ATOM     13  O   UNL     1      -8.110  15.765  68.319  0.00  0.00    -0.247 OA
BRANCH  12  14
ATOM     14  C   UNL     1     -10.081  16.941  69.100  0.00  0.00    +0.272 C 
ATOM     15  O   UNL     1     -11.413  16.675  68.407  0.00  0.00    -0.206 OA
BRANCH  14  16
ATOM     16  C   UNL     1      -9.860  18.343  68.333  0.00  0.00    +0.019 A 
ATOM     17  C   UNL     1      -8.660  18.957  68.380  0.00  0.00    -0.001 A 
ATOM     18  C   UNL     1      -8.547  20.074  67.553  0.00  0.00    -0.000 A 
ATOM     19  C   UNL     1      -9.162  19.935  66.313  0.00  0.00    -0.000 A 
ATOM     20  C   UNL     1     -10.350  19.217  66.235  0.00  0.00    -0.000 A 
ATOM     21  C   UNL     1     -10.697  18.336  67.245  0.00  0.00    -0.001 A 
ENDBRANCH  14  16
ENDBRANCH  12  14
ENDBRANCH   1  12
TORSDOF 4
ENDMDL
MODEL 9
REMARK VINA RESULT:      -6.0      4.167      5.696
REMARK  Name = 
REMARK  4 active torsions:
REMARK  status: ('A' for Active; 'I' for Inactive)
REMARK    1  A    between atoms: C_9  and  O_10
REMARK    2  A    between atoms: O_10  and  C_11
REMARK    3  A    between atoms: C_11  and  C_13
REMARK    4  A    between atoms: C_13  and  C_15
REMARK                            x       y       z     vdW  Elec       q    Type
REMARK                         _______ _______ _______ _____ _____    ______ ____
ROOT
ATOM      1  O   UNL     1      -9.427  17.775  65.956  0.00  0.00    -0.450 OA
ENDROOT
BRANCH   1   6
ATOM      2  C   UNL     1      -9.802  13.620  67.633  0.00  0.00    +0.170 C 
ATOM      3  N   UNL     1      -9.673  14.553  67.099  0.00  0.00    +0.298 N 
ATOM      4  C   UNL     1     -11.028  15.341  66.892  0.00  0.00    +0.062 C 
ATOM      5  C   UNL     1     -10.597  16.625  67.763  0.00  0.00    +0.099 C 
ATOM      6  C   UNL     1     -10.392  16.871  66.245  0.00  0.00    +0.180 C 
ATOM      7  C   UNL     1     -10.607  15.798  65.245  0.00  0.00    +0.099 C 
ATOM      8  C   UNL     1     -11.680  14.262  67.880  0.00  0.00    +0.061 C 
ATOM      9  C   UNL     1     -11.770  13.794  66.374  0.00  0.00    +0.061 C 
ATOM     10  C   UNL     1     -10.320  14.233  65.697  0.00  0.00    +0.062 C 
ATOM     11  C   UNL     1      -8.525  15.140  66.734  0.00  0.00    +0.170 C 
ENDBRANCH   1   6
BRANCH   1  12
ATOM     12  C   UNL     1      -9.422  19.044  66.499  0.00  0.00    +0.352 C 
ATOM     13  O   UNL     1     -10.456  19.731  66.277  0.00  0.00    -0.247 OA
BRANCH  12  14
ATOM     14  C   UNL     1      -8.077  19.654  65.816  0.00  0.00    +0.272 C 
ATOM     15  O   UNL     1      -7.390  18.292  65.840  0.00  0.00    -0.206 OA
BRANCH  14  16
ATOM     16  C   UNL     1      -7.473  20.082  67.251  0.00  0.00    +0.019 A 
ATOM     17  C   UNL     1      -7.494  19.209  68.279  0.00  0.00    -0.001 A 
ATOM     18  C   UNL     1      -6.806  19.637  69.415  0.00  0.00    -0.000 A 
ATOM     19  C   UNL     1      -5.615  20.305  69.148  0.00  0.00    -0.000 A 
ATOM     20  C   UNL     1      -5.551  21.131  68.030  0.00  0.00    -0.000 A 
ATOM     21  C   UNL     1      -6.470  20.985  67.005  0.00  0.00    -0.001 A 
ENDBRANCH  14  16
ENDBRANCH  12  14
ENDBRANCH   1  12
TORSDOF 4
ENDMDL
