MODEL 1
REMARK VINA RESULT:      -6.8      0.000      0.000
REMARK  Name = 
REMARK  10 active torsions:
REMARK  status: ('A' for Active; 'I' for Inactive)
REMARK    1  A    between atoms: C_2  and  C_3
REMARK    2  A    between atoms: C_19  and  C_20
REMARK    3  A    between atoms: C_19  and  C_24
REMARK    4  A    between atoms: C_20  and  O_22
REMARK    5  A    between atoms: C_29  and  O_30
REMARK    6  A    between atoms: C_42  and  C_43
REMARK    7  A    between atoms: C_46  and  O_47
REMARK    8  A    between atoms: O_47  and  C_48
REMARK    9  A    between atoms: C_51  and  C_53
REMARK   10  A    between atoms: C_53  and  O_55
REMARK                            x       y       z     vdW  Elec       q    Type
REMARK                         _______ _______ _______ _____ _____    ______ ____
ROOT
ATOM      1  C   UNL     1      -9.188  12.357  67.374  0.00  0.00    +0.026 A 
ATOM      2  C   UNL     1      -9.172  11.882  66.060  0.00  0.00    +0.137 A 
ATOM      3  C   UNL     1      -8.341  10.770  65.947  0.00  0.00    +0.051 A 
ATOM      4  C   UNL     1      -8.204   9.862  67.015  0.00  0.00    +0.047 A 
ATOM      5  N   UNL     1      -7.491   8.672  67.154  0.00  0.00    -0.304 N 
ATOM      6  C   UNL     1      -8.191   7.763  68.230  0.00  0.00    +0.120 C 
ATOM      7  C   UNL     1      -7.169   8.248  69.384  0.00  0.00    +0.268 C 
ATOM      8  O   UNL     1      -6.856   9.524  69.364  0.00  0.00    -0.209 OA
ATOM      9  C   UNL     1      -7.774   7.818  70.830  0.00  0.00    +0.213 C 
ATOM     10  C   UNL     1      -9.201   7.234  70.348  0.00  0.00    +0.072 C 
ATOM     11  C   UNL     1     -10.061   8.527  69.892  0.00  0.00    +0.070 C 
ATOM     12  N   UNL     1     -11.263   7.632  69.393  0.00  0.00    -0.269 NA
ATOM     13  C   UNL     1     -11.474   6.581  70.320  0.00  0.00    +0.099 C 
ATOM     14  C   UNL     1     -10.539   5.477  69.885  0.00  0.00    -0.013 C 
ATOM     15  C   UNL     1     -10.937   7.187  68.122  0.00  0.00    +0.073 C 
ATOM     16  C   UNL     1     -10.491   8.432  67.482  0.00  0.00    +0.024 C 
ATOM     17  C   UNL     1      -9.314   6.034  69.788  0.00  0.00    -0.025 C 
ATOM     18  C   UNL     1      -9.411   8.796  68.450  0.00  0.00    +0.055 C 
ATOM     19  C   UNL     1      -6.997   7.904  66.011  0.00  0.00    +0.112 C 
ATOM     20  C   UNL     1      -8.912  10.082  68.208  0.00  0.00    -0.007 A 
ATOM     21  C   UNL     1      -9.060  11.449  68.434  0.00  0.00    -0.003 A 
ENDROOT
BRANCH   1  28
ATOM     22  C   UNL     1      -8.971  17.714  66.875  0.00  0.00    -0.033 C 
ATOM     23  C   UNL     1     -10.278  18.247  67.373  0.00  0.00    +0.095 C 
ATOM     24  N   UNL     1     -10.937  17.179  68.000  0.00  0.00    -0.265 NA
ATOM     25  C   UNL     1     -10.336  16.704  69.247  0.00  0.00    +0.101 C 
ATOM     26  C   UNL     1     -10.589  15.235  69.430  0.00  0.00    +0.010 A 
ATOM     27  C   UNL     1     -10.396  14.028  68.757  0.00  0.00    +0.070 A 
ATOM     28  C   UNL     1      -9.464  13.814  67.657  0.00  0.00    +0.146 C 
ATOM     29  C   UNL     1      -9.897  14.244  66.380  0.00  0.00    +0.026 C 
ATOM     30  C   UNL     1     -10.155  15.804  66.053  0.00  0.00    +0.039 C 
ATOM     31  N   UNL     1     -11.619  13.442  68.845  0.00  0.00    -0.249 NA
ATOM     32  C   UNL     1     -12.283  13.918  69.929  0.00  0.00    +0.081 A 
ATOM     33  C   UNL     1     -13.199  13.311  70.768  0.00  0.00    +0.019 A 
ATOM     34  C   UNL     1     -13.187  13.625  72.119  0.00  0.00    +0.002 A 
ATOM     35  C   UNL     1     -12.341  14.617  72.616  0.00  0.00    +0.000 A 
ATOM     36  C   UNL     1     -11.598  15.401  71.736  0.00  0.00    +0.001 A 
ATOM     37  C   UNL     1     -11.535  14.982  70.411  0.00  0.00    +0.016 A 
ATOM     38  C   UNL     1     -11.257  16.043  67.235  0.00  0.00    +0.077 C 
ATOM     39  C   UNL     1      -8.914  16.375  66.904  0.00  0.00    -0.032 C 
BRANCH  22  41
ATOM     40  C   UNL     1      -7.593  19.192  67.997  0.00  0.00    +0.005 C 
ATOM     41  C   UNL     1      -7.782  18.570  67.034  0.00  0.00    +0.023 C 
ENDBRANCH  22  41
BRANCH  28  42
ATOM     42  C   UNL     1      -8.093  14.226  68.126  0.00  0.00    +0.325 C 
ATOM     43  O   UNL     1      -7.897  14.392  69.371  0.00  0.00    -0.249 OA
BRANCH  42  44
ATOM     44  O   UNL     1      -6.950  13.994  67.348  0.00  0.00    -0.444 OA
ATOM     45  C   UNL     1      -5.719  13.562  67.863  0.00  0.00    +0.256 C 
ENDBRANCH  42  44
ENDBRANCH  28  42
ENDBRANCH   1  28
BRANCH   2  46
ATOM     46  O   UNL     1     -10.305  12.166  65.362  0.00  0.00    -0.472 OA
ATOM     47  C   UNL     1     -10.938  11.434  64.361  0.00  0.00    +0.252 C 
ENDBRANCH   2  46
BRANCH   7  48
ATOM     48  C   UNL     1      -5.950   7.470  69.128  0.00  0.00    +0.350 C 
ATOM     49  O   UNL     1      -6.144   6.437  68.413  0.00  0.00    -0.247 OA
BRANCH  48  50
ATOM     50  O   UNL     1      -4.728   8.117  68.912  0.00  0.00    -0.443 OA
ATOM     51  C   UNL     1      -3.658   8.041  69.850  0.00  0.00    +0.256 C 
ENDBRANCH  48  50
ENDBRANCH   7  48
BRANCH  10  52
ATOM     52  C   UNL     1      -9.811   7.176  71.767  0.00  0.00    +0.009 C 
ATOM     53  C   UNL     1      -9.439   8.438  72.538  0.00  0.00    +0.001 C 
ENDBRANCH  10  52
BRANCH   9  54
ATOM     54  O   UNL     1      -7.159   6.393  70.841  0.00  0.00    -0.449 OA
BRANCH  54  55
ATOM     55  C   UNL     1      -6.584   6.123  72.085  0.00  0.00    +0.318 C 
ATOM     56  O   UNL     1      -6.925   5.098  72.754  0.00  0.00    -0.250 OA
ATOM     57  C   UNL     1      -5.877   7.182  72.878  0.00  0.00    +0.121 C 
ENDBRANCH  54  55
ENDBRANCH   9  54
TORSDOF 10
ENDMDL
MODEL 2
REMARK VINA RESULT:      -6.8      1.133      1.393
REMARK  Name = 
REMARK  10 active torsions:
REMARK  status: ('A' for Active; 'I' for Inactive)
REMARK    1  A    between atoms: C_2  and  C_3
REMARK    2  A    between atoms: C_19  and  C_20
REMARK    3  A    between atoms: C_19  and  C_24
REMARK    4  A    between atoms: C_20  and  O_22
REMARK    5  A    between atoms: C_29  and  O_30
REMARK    6  A    between atoms: C_42  and  C_43
REMARK    7  A    between atoms: C_46  and  O_47
REMARK    8  A    between atoms: O_47  and  C_48
REMARK    9  A    between atoms: C_51  and  C_53
REMARK   10  A    between atoms: C_53  and  O_55
REMARK                            x       y       z     vdW  Elec       q    Type
REMARK                         _______ _______ _______ _____ _____    ______ ____
ROOT
ATOM      1  C   UNL     1      -9.586  12.901  67.214  0.00  0.00    +0.026 A 
ATOM      2  C   UNL     1     -10.199  12.460  66.039  0.00  0.00    +0.137 A 
ATOM      3  C   UNL     1      -9.524  11.360  65.513  0.00  0.00    +0.051 A 
ATOM      4  C   UNL     1      -8.898  10.427  66.361  0.00  0.00    +0.047 A 
ATOM      5  N   UNL     1      -8.208   9.242  66.110  0.00  0.00    -0.304 N 
ATOM      6  C   UNL     1      -8.312   8.298  67.364  0.00  0.00    +0.120 C 
ATOM      7  C   UNL     1      -6.862   8.765  67.905  0.00  0.00    +0.268 C 
ATOM      8  O   UNL     1      -6.593  10.045  67.773  0.00  0.00    -0.209 OA
ATOM      9  C   UNL     1      -6.706   8.293  69.452  0.00  0.00    +0.213 C 
ATOM     10  C   UNL     1      -8.191   7.705  69.693  0.00  0.00    +0.072 C 
ATOM     11  C   UNL     1      -9.161   9.000  69.738  0.00  0.00    +0.070 C 
ATOM     12  N   UNL     1     -10.458   8.105  69.847  0.00  0.00    -0.269 NA
ATOM     13  C   UNL     1     -10.204   7.028  70.734  0.00  0.00    +0.099 C 
ATOM     14  C   UNL     1      -9.592   5.946  69.875  0.00  0.00    -0.013 C 
ATOM     15  C   UNL     1     -10.779   7.695  68.563  0.00  0.00    +0.073 C 
ATOM     16  C   UNL     1     -10.688   8.961  67.822  0.00  0.00    +0.024 C 
ATOM     17  C   UNL     1      -8.560   6.518  69.222  0.00  0.00    -0.025 C 
ATOM     18  C   UNL     1      -9.277   9.312  68.168  0.00  0.00    +0.055 C 
ATOM     19  C   UNL     1      -8.319   8.508  64.850  0.00  0.00    +0.112 C 
ATOM     20  C   UNL     1      -8.951  10.609  67.753  0.00  0.00    -0.007 A 
ATOM     21  C   UNL     1      -8.969  11.969  68.059  0.00  0.00    -0.003 A 
ENDROOT
BRANCH   1  28
ATOM     22  C   UNL     1      -8.778  18.224  67.185  0.00  0.00    -0.033 C 
ATOM     23  C   UNL     1     -10.006  18.850  67.770  0.00  0.00    +0.095 C 
ATOM     24  N   UNL     1     -10.768  17.809  68.320  0.00  0.00    -0.265 NA
ATOM     25  C   UNL     1     -10.196  17.158  69.500  0.00  0.00    +0.101 C 
ATOM     26  C   UNL     1     -10.608  15.715  69.561  0.00  0.00    +0.010 A 
ATOM     27  C   UNL     1     -10.567  14.561  68.778  0.00  0.00    +0.070 A 
ATOM     28  C   UNL     1      -9.689  14.347  67.633  0.00  0.00    +0.146 C 
ATOM     29  C   UNL     1     -10.100  14.938  66.414  0.00  0.00    +0.026 C 
ATOM     30  C   UNL     1     -10.188  16.540  66.235  0.00  0.00    +0.039 C 
ATOM     31  N   UNL     1     -11.846  14.108  68.852  0.00  0.00    -0.249 NA
ATOM     32  C   UNL     1     -12.428  14.553  69.994  0.00  0.00    +0.081 A 
ATOM     33  C   UNL     1     -13.389  13.975  70.805  0.00  0.00    +0.019 A 
ATOM     34  C   UNL     1     -13.311  14.161  72.178  0.00  0.00    +0.002 A 
ATOM     35  C   UNL     1     -12.349  15.004  72.733  0.00  0.00    +0.000 A 
ATOM     36  C   UNL     1     -11.542  15.779  71.903  0.00  0.00    +0.001 A 
ATOM     37  C   UNL     1     -11.555  15.479  70.544  0.00  0.00    +0.016 A 
ATOM     38  C   UNL     1     -11.229  16.789  67.468  0.00  0.00    +0.077 C 
ATOM     39  C   UNL     1      -8.872  16.890  67.093  0.00  0.00    -0.032 C 
BRANCH  22  41
ATOM     40  C   UNL     1      -7.215  19.425  68.391  0.00  0.00    +0.005 C 
ATOM     41  C   UNL     1      -7.498  18.927  67.381  0.00  0.00    +0.023 C 
ENDBRANCH  22  41
BRANCH  28  42
ATOM     42  C   UNL     1      -8.271  14.561  68.093  0.00  0.00    +0.325 C 
ATOM     43  O   UNL     1      -8.025  14.557  69.340  0.00  0.00    -0.249 OA
BRANCH  42  44
ATOM     44  O   UNL     1      -7.180  14.311  67.249  0.00  0.00    -0.444 OA
ATOM     45  C   UNL     1      -5.897  13.964  67.699  0.00  0.00    +0.256 C 
ENDBRANCH  42  44
ENDBRANCH  28  42
ENDBRANCH   1  28
BRANCH   2  46
ATOM     46  O   UNL     1     -11.527  12.749  65.973  0.00  0.00    -0.472 OA
ATOM     47  C   UNL     1     -12.425  12.562  64.926  0.00  0.00    +0.252 C 
ENDBRANCH   2  46
BRANCH   7  48
ATOM     48  C   UNL     1      -5.914   8.007  67.077  0.00  0.00    +0.350 C 
ATOM     49  O   UNL     1      -6.425   6.982  66.525  0.00  0.00    -0.247 OA
BRANCH  48  50
ATOM     50  O   UNL     1      -4.951   8.673  66.312  0.00  0.00    -0.443 OA
ATOM     51  C   UNL     1      -3.557   8.547  66.577  0.00  0.00    +0.256 C 
ENDBRANCH  48  50
ENDBRANCH   7  48
BRANCH  10  52
ATOM     52  C   UNL     1      -8.050   7.604  71.229  0.00  0.00    +0.009 C 
ATOM     53  C   UNL     1      -7.283   8.812  71.755  0.00  0.00    +0.001 C 
ENDBRANCH  10  52
BRANCH   9  54
ATOM     54  O   UNL     1      -6.163   6.874  69.130  0.00  0.00    -0.449 OA
BRANCH  54  55
ATOM     55  C   UNL     1      -5.040   6.595  69.913  0.00  0.00    +0.318 C 
ATOM     56  O   UNL     1      -5.008   5.573  70.667  0.00  0.00    -0.250 OA
ATOM     57  C   UNL     1      -4.019   7.645  70.235  0.00  0.00    +0.121 C 
ENDBRANCH  54  55
ENDBRANCH   9  54
TORSDOF 10
ENDMDL
MODEL 3
REMARK VINA RESULT:      -6.7      3.311      6.471
REMARK  Name = 
REMARK  10 active torsions:
REMARK  status: ('A' for Active; 'I' for Inactive)
REMARK    1  A    between atoms: C_2  and  C_3
REMARK    2  A    between atoms: C_19  and  C_20
REMARK    3  A    between atoms: C_19  and  C_24
REMARK    4  A    between atoms: C_20  and  O_22
REMARK    5  A    between atoms: C_29  and  O_30
REMARK    6  A    between atoms: C_42  and  C_43
REMARK    7  A    between atoms: C_46  and  O_47
REMARK    8  A    between atoms: O_47  and  C_48
REMARK    9  A    between atoms: C_51  and  C_53
REMARK   10  A    between atoms: C_53  and  O_55
REMARK                            x       y       z     vdW  Elec       q    Type
REMARK                         _______ _______ _______ _____ _____    ______ ____
ROOT
ATOM      1  C   UNL     1      -8.193  16.835  67.376  0.00  0.00    +0.026 A 
ATOM      2  C   UNL     1      -9.308  17.545  66.925  0.00  0.00    +0.137 A 
ATOM      3  C   UNL     1     -10.072  16.766  66.059  0.00  0.00    +0.051 A 
ATOM      4  C   UNL     1     -10.161  15.371  66.232  0.00  0.00    +0.047 A 
ATOM      5  N   UNL     1     -10.870  14.381  65.554  0.00  0.00    -0.304 N 
ATOM      6  C   UNL     1     -11.140  13.172  66.523  0.00  0.00    +0.120 C 
ATOM      7  C   UNL     1      -9.876  12.351  65.939  0.00  0.00    +0.268 C 
ATOM      8  O   UNL     1      -8.803  13.067  65.686  0.00  0.00    -0.209 OA
ATOM      9  C   UNL     1      -9.535  11.128  66.954  0.00  0.00    +0.213 C 
ATOM     10  C   UNL     1     -10.588  11.469  68.131  0.00  0.00    +0.072 C 
ATOM     11  C   UNL     1     -10.008  12.798  68.852  0.00  0.00    +0.070 C 
ATOM     12  N   UNL     1     -11.268  12.912  69.797  0.00  0.00    -0.269 NA
ATOM     13  C   UNL     1     -11.626  11.618  70.250  0.00  0.00    +0.099 C 
ATOM     14  C   UNL     1     -12.543  11.066  69.183  0.00  0.00    -0.013 C 
ATOM     15  C   UNL     1     -12.267  13.537  69.068  0.00  0.00    +0.073 C 
ATOM     16  C   UNL     1     -11.540  14.675  68.491  0.00  0.00    +0.024 C 
ATOM     17  C   UNL     1     -11.883  11.195  68.013  0.00  0.00    -0.025 C 
ATOM     18  C   UNL     1     -10.465  13.910  67.789  0.00  0.00    +0.055 C 
ATOM     19  C   UNL     1     -12.017  14.673  64.693  0.00  0.00    +0.112 C 
ATOM     20  C   UNL     1      -9.469  14.758  67.290  0.00  0.00    -0.007 A 
ATOM     21  C   UNL     1      -8.287  15.448  67.555  0.00  0.00    -0.003 A 
ENDROOT
BRANCH   1  28
ATOM     22  C   UNL     1      -4.552  20.786  67.728  0.00  0.00    -0.033 C 
ATOM     23  C   UNL     1      -3.879  20.635  69.056  0.00  0.00    +0.095 C 
ATOM     24  N   UNL     1      -4.277  19.393  69.572  0.00  0.00    -0.265 NA
ATOM     25  C   UNL     1      -3.766  18.218  68.865  0.00  0.00    +0.101 C 
ATOM     26  C   UNL     1      -4.742  17.079  68.958  0.00  0.00    +0.010 A 
ATOM     27  C   UNL     1      -6.079  16.795  68.677  0.00  0.00    +0.070 A 
ATOM     28  C   UNL     1      -6.936  17.565  67.783  0.00  0.00    +0.146 C 
ATOM     29  C   UNL     1      -7.493  18.750  68.321  0.00  0.00    +0.026 C 
ATOM     30  C   UNL     1      -6.568  20.002  68.752  0.00  0.00    +0.039 C 
ATOM     31  N   UNL     1      -6.506  16.213  69.829  0.00  0.00    -0.249 NA
ATOM     32  C   UNL     1      -5.454  15.658  70.483  0.00  0.00    +0.081 A 
ATOM     33  C   UNL     1      -5.380  14.538  71.290  0.00  0.00    +0.019 A 
ATOM     34  C   UNL     1      -4.240  13.748  71.243  0.00  0.00    +0.002 A 
ATOM     35  C   UNL     1      -3.137  14.128  70.480  0.00  0.00    +0.000 A 
ATOM     36  C   UNL     1      -3.115  15.378  69.864  0.00  0.00    +0.001 A 
ATOM     37  C   UNL     1      -4.312  16.087  69.824  0.00  0.00    +0.016 A 
ATOM     38  C   UNL     1      -5.645  19.171  69.812  0.00  0.00    +0.077 C 
ATOM     39  C   UNL     1      -5.522  19.881  67.534  0.00  0.00    -0.032 C 
BRANCH  22  41
ATOM     40  C   UNL     1      -3.150  20.700  65.893  0.00  0.00    +0.005 C 
ATOM     41  C   UNL     1      -3.761  21.362  66.626  0.00  0.00    +0.023 C 
ENDBRANCH  22  41
BRANCH  28  42
ATOM     42  C   UNL     1      -6.258  17.634  66.440  0.00  0.00    +0.325 C 
ATOM     43  O   UNL     1      -5.429  16.724  66.125  0.00  0.00    -0.249 OA
BRANCH  42  44
ATOM     44  O   UNL     1      -6.812  18.359  65.375  0.00  0.00    -0.444 OA
ATOM     45  C   UNL     1      -6.062  18.938  64.340  0.00  0.00    +0.256 C 
ENDBRANCH  42  44
ENDBRANCH  28  42
ENDBRANCH   1  28
BRANCH   2  46
ATOM     46  O   UNL     1      -9.729  18.509  67.789  0.00  0.00    -0.472 OA
ATOM     47  C   UNL     1     -10.563  19.601  67.563  0.00  0.00    +0.252 C 
ENDBRANCH   2  46
BRANCH   7  48
ATOM     48  C   UNL     1     -10.369  11.795  64.672  0.00  0.00    +0.350 C 
ATOM     49  O   UNL     1     -11.637  11.771  64.583  0.00  0.00    -0.247 OA
BRANCH  48  50
ATOM     50  O   UNL     1      -9.697  12.058  63.473  0.00  0.00    -0.443 OA
ATOM     51  C   UNL     1      -9.169  11.015  62.659  0.00  0.00    +0.256 C 
ENDBRANCH  48  50
ENDBRANCH   7  48
BRANCH  10  52
ATOM     52  C   UNL     1      -9.968  10.493  69.156  0.00  0.00    +0.009 C 
ATOM     53  C   UNL     1      -8.447  10.585  69.097  0.00  0.00    +0.001 C 
ENDBRANCH  10  52
BRANCH   9  54
ATOM     54  O   UNL     1     -10.525  10.115  66.319  0.00  0.00    -0.449 OA
BRANCH  54  55
ATOM     55  C   UNL     1      -9.938   8.850  66.237  0.00  0.00    +0.318 C 
ATOM     56  O   UNL     1      -9.068   8.590  65.348  0.00  0.00    -0.250 OA
ATOM     57  C   UNL     1     -10.562   7.645  66.875  0.00  0.00    +0.121 C 
ENDBRANCH  54  55
ENDBRANCH   9  54
TORSDOF 10
ENDMDL
MODEL 4
REMARK VINA RESULT:      -6.6      1.210      1.418
REMARK  Name = 
REMARK  10 active torsions:
REMARK  status: ('A' for Active; 'I' for Inactive)
REMARK    1  A    between atoms: C_2  and  C_3
REMARK    2  A    between atoms: C_19  and  C_20
REMARK    3  A    between atoms: C_19  and  C_24
REMARK    4  A    between atoms: C_20  and  O_22
REMARK    5  A    between atoms: C_29  and  O_30
REMARK    6  A    between atoms: C_42  and  C_43
REMARK    7  A    between atoms: C_46  and  O_47
REMARK    8  A    between atoms: O_47  and  C_48
REMARK    9  A    between atoms: C_51  and  C_53
REMARK   10  A    between atoms: C_53  and  O_55
REMARK                            x       y       z     vdW  Elec       q    Type
REMARK                         _______ _______ _______ _____ _____    ______ ____
ROOT
ATOM      1  C   UNL     1      -8.494  11.997  67.804  0.00  0.00    +0.026 A 
ATOM      2  C   UNL     1      -7.815  11.433  66.722  0.00  0.00    +0.137 A 
ATOM      3  C   UNL     1      -6.970  10.410  67.148  0.00  0.00    +0.051 A 
ATOM      4  C   UNL     1      -7.315   9.602  68.248  0.00  0.00    +0.047 A 
ATOM      5  N   UNL     1      -6.691   8.508  68.846  0.00  0.00    -0.304 N 
ATOM      6  C   UNL     1      -7.770   7.610  69.554  0.00  0.00    +0.120 C 
ATOM      7  C   UNL     1      -7.467   8.284  70.992  0.00  0.00    +0.268 C 
ATOM      8  O   UNL     1      -7.259   9.582  70.977  0.00  0.00    -0.209 OA
ATOM      9  C   UNL     1      -8.672   7.898  72.013  0.00  0.00    +0.213 C 
ATOM     10  C   UNL     1      -9.648   7.131  70.980  0.00  0.00    +0.072 C 
ATOM     11  C   UNL     1     -10.253   8.289  70.023  0.00  0.00    +0.070 C 
ATOM     12  N   UNL     1     -11.007   7.237  69.118  0.00  0.00    -0.269 NA
ATOM     13  C   UNL     1     -11.579   6.239  69.946  0.00  0.00    +0.099 C 
ATOM     14  C   UNL     1     -10.488   5.213  70.140  0.00  0.00    -0.013 C 
ATOM     15  C   UNL     1     -10.080   6.738  68.217  0.00  0.00    +0.073 C 
ATOM     16  C   UNL     1      -9.453   7.974  67.729  0.00  0.00    +0.024 C 
ATOM     17  C   UNL     1      -9.405   5.888  70.576  0.00  0.00    -0.025 C 
ATOM     18  C   UNL     1      -9.002   8.520  69.045  0.00  0.00    +0.055 C 
ATOM     19  C   UNL     1      -5.660   7.717  68.175  0.00  0.00    +0.112 C 
ATOM     20  C   UNL     1      -8.525   9.831  68.924  0.00  0.00    -0.007 A 
ATOM     21  C   UNL     1      -8.843  11.188  68.894  0.00  0.00    -0.003 A 
ENDROOT
BRANCH   1  28
ATOM     22  C   UNL     1      -8.878  17.109  66.157  0.00  0.00    -0.033 C 
ATOM     23  C   UNL     1     -10.268  17.562  66.476  0.00  0.00    +0.095 C 
ATOM     24  N   UNL     1     -10.837  16.575  67.296  0.00  0.00    -0.265 NA
ATOM     25  C   UNL     1     -10.265  16.457  68.638  0.00  0.00    +0.101 C 
ATOM     26  C   UNL     1     -10.354  15.040  69.128  0.00  0.00    +0.010 A 
ATOM     27  C   UNL     1      -9.977  13.753  68.743  0.00  0.00    +0.070 A 
ATOM     28  C   UNL     1      -8.957  13.433  67.752  0.00  0.00    +0.146 C 
ATOM     29  C   UNL     1      -9.355  13.523  66.396  0.00  0.00    +0.026 C 
ATOM     30  C   UNL     1      -9.773  14.932  65.727  0.00  0.00    +0.039 C 
ATOM     31  N   UNL     1     -11.126  13.046  68.909  0.00  0.00    -0.249 NA
ATOM     32  C   UNL     1     -11.910  13.651  69.838  0.00  0.00    +0.081 A 
ATOM     33  C   UNL     1     -12.801  13.122  70.754  0.00  0.00    +0.019 A 
ATOM     34  C   UNL     1     -12.913  13.715  72.003  0.00  0.00    +0.002 A 
ATOM     35  C   UNL     1     -12.225  14.889  72.303  0.00  0.00    +0.000 A 
ATOM     36  C   UNL     1     -11.524  15.559  71.302  0.00  0.00    +0.001 A 
ATOM     37  C   UNL     1     -11.326  14.880  70.104  0.00  0.00    +0.016 A 
ATOM     38  C   UNL     1     -10.969  15.271  66.785  0.00  0.00    +0.077 C 
ATOM     39  C   UNL     1      -8.665  15.825  66.479  0.00  0.00    -0.032 C 
BRANCH  22  41
ATOM     40  C   UNL     1      -8.000  19.215  66.526  0.00  0.00    +0.005 C 
ATOM     41  C   UNL     1      -7.811  18.126  66.170  0.00  0.00    +0.023 C 
ENDBRANCH  22  41
BRANCH  28  42
ATOM     42  C   UNL     1      -7.678  14.108  68.171  0.00  0.00    +0.325 C 
ATOM     43  O   UNL     1      -7.509  14.390  69.399  0.00  0.00    -0.249 OA
BRANCH  42  44
ATOM     44  O   UNL     1      -6.515  14.027  67.392  0.00  0.00    -0.444 OA
ATOM     45  C   UNL     1      -5.220  13.905  67.917  0.00  0.00    +0.256 C 
ENDBRANCH  42  44
ENDBRANCH  28  42
ENDBRANCH   1  28
BRANCH   2  46
ATOM     46  O   UNL     1      -8.481  11.542  65.540  0.00  0.00    -0.472 OA
ATOM     47  C   UNL     1      -9.005  10.546  64.721  0.00  0.00    +0.252 C 
ENDBRANCH   2  46
BRANCH   7  48
ATOM     48  C   UNL     1      -6.234   7.625  71.440  0.00  0.00    +0.350 C 
ATOM     49  O   UNL     1      -6.008   6.516  70.860  0.00  0.00    -0.247 OA
BRANCH  48  50
ATOM     50  O   UNL     1      -5.093   8.379  71.736  0.00  0.00    -0.443 OA
ATOM     51  C   UNL     1      -4.567   8.465  73.057  0.00  0.00    +0.256 C 
ENDBRANCH  48  50
ENDBRANCH   7  48
BRANCH  10  52
ATOM     52  C   UNL     1     -10.866   7.111  71.932  0.00  0.00    +0.009 C 
ATOM     53  C   UNL     1     -11.091   8.506  72.506  0.00  0.00    +0.001 C 
ENDBRANCH  10  52
BRANCH   9  54
ATOM     54  O   UNL     1      -8.057   6.552  72.480  0.00  0.00    -0.449 OA
BRANCH  54  55
ATOM     55  C   UNL     1      -8.146   6.434  73.869  0.00  0.00    +0.318 C 
ATOM     56  O   UNL     1      -8.790   5.477  74.403  0.00  0.00    -0.250 OA
ATOM     57  C   UNL     1      -7.874   7.592  74.781  0.00  0.00    +0.121 C 
ENDBRANCH  54  55
ENDBRANCH   9  54
TORSDOF 10
ENDMDL
MODEL 5
REMARK VINA RESULT:      -6.4      2.448      4.791
REMARK  Name = 
REMARK  10 active torsions:
REMARK  status: ('A' for Active; 'I' for Inactive)
REMARK    1  A    between atoms: C_2  and  C_3
REMARK    2  A    between atoms: C_19  and  C_20
REMARK    3  A    between atoms: C_19  and  C_24
REMARK    4  A    between atoms: C_20  and  O_22
REMARK    5  A    between atoms: C_29  and  O_30
REMARK    6  A    between atoms: C_42  and  C_43
REMARK    7  A    between atoms: C_46  and  O_47
REMARK    8  A    between atoms: O_47  and  C_48
REMARK    9  A    between atoms: C_51  and  C_53
REMARK   10  A    between atoms: C_53  and  O_55
REMARK                            x       y       z     vdW  Elec       q    Type
REMARK                         _______ _______ _______ _____ _____    ______ ____
ROOT
ATOM      1  C   UNL     1      -8.174  11.003  68.727  0.00  0.00    +0.026 A 
ATOM      2  C   UNL     1      -6.788  11.171  68.780  0.00  0.00    +0.137 A 
ATOM      3  C   UNL     1      -6.277  10.674  69.977  0.00  0.00    +0.051 A 
ATOM      4  C   UNL     1      -6.866   9.560  70.605  0.00  0.00    +0.047 A 
ATOM      5  N   UNL     1      -6.540   8.847  71.758  0.00  0.00    -0.304 N 
ATOM      6  C   UNL     1      -7.074   7.373  71.632  0.00  0.00    +0.120 C 
ATOM      7  C   UNL     1      -8.398   7.721  72.492  0.00  0.00    +0.268 C 
ATOM      8  O   UNL     1      -8.943   8.891  72.243  0.00  0.00    -0.209 OA
ATOM      9  C   UNL     1      -9.476   6.521  72.298  0.00  0.00    +0.213 C 
ATOM     10  C   UNL     1      -8.688   5.643  71.195  0.00  0.00    +0.072 C 
ATOM     11  C   UNL     1      -8.760   6.508  69.828  0.00  0.00    +0.070 C 
ATOM     12  N   UNL     1      -7.841   5.482  69.055  0.00  0.00    -0.269 NA
ATOM     13  C   UNL     1      -8.217   4.163  69.411  0.00  0.00    +0.099 C 
ATOM     14  C   UNL     1      -7.426   3.851  70.660  0.00  0.00    -0.013 C 
ATOM     15  C   UNL     1      -6.529   5.787  69.380  0.00  0.00    +0.073 C 
ATOM     16  C   UNL     1      -6.512   7.244  69.190  0.00  0.00    +0.024 C 
ATOM     17  C   UNL     1      -7.665   4.859  71.523  0.00  0.00    -0.025 C 
ATOM     18  C   UNL     1      -7.620   7.596  70.130  0.00  0.00    +0.055 C 
ATOM     19  C   UNL     1      -5.220   8.910  72.385  0.00  0.00    +0.112 C 
ATOM     20  C   UNL     1      -7.983   8.944  70.018  0.00  0.00    -0.007 A 
ATOM     21  C   UNL     1      -8.756   9.889  69.346  0.00  0.00    -0.003 A 
ENDROOT
BRANCH   1  28
ATOM     22  C   UNL     1     -12.240  12.724  65.645  0.00  0.00    -0.033 C 
ATOM     23  C   UNL     1     -12.424  14.179  65.947  0.00  0.00    +0.095 C 
ATOM     24  N   UNL     1     -11.319  14.576  66.714  0.00  0.00    -0.265 NA
ATOM     25  C   UNL     1     -10.034  14.597  66.014  0.00  0.00    +0.101 C 
ATOM     26  C   UNL     1      -8.910  14.294  66.964  0.00  0.00    +0.010 A 
ATOM     27  C   UNL     1      -8.517  13.309  67.871  0.00  0.00    +0.070 A 
ATOM     28  C   UNL     1      -9.026  11.943  67.909  0.00  0.00    +0.146 C 
ATOM     29  C   UNL     1     -10.281  11.763  68.539  0.00  0.00    +0.026 C 
ATOM     30  C   UNL     1     -11.633  12.409  67.937  0.00  0.00    +0.039 C 
ATOM     31  N   UNL     1      -8.199  14.034  68.975  0.00  0.00    -0.249 NA
ATOM     32  C   UNL     1      -7.851  15.296  68.615  0.00  0.00    +0.081 A 
ATOM     33  C   UNL     1      -6.949  16.181  69.177  0.00  0.00    +0.019 A 
ATOM     34  C   UNL     1      -6.215  17.015  68.345  0.00  0.00    +0.002 A 
ATOM     35  C   UNL     1      -6.452  17.043  66.971  0.00  0.00    +0.000 A 
ATOM     36  C   UNL     1      -7.528  16.336  66.436  0.00  0.00    +0.001 A 
ATOM     37  C   UNL     1      -8.161  15.419  67.269  0.00  0.00    +0.016 A 
ATOM     38  C   UNL     1     -11.105  13.953  67.957  0.00  0.00    +0.077 C 
ATOM     39  C   UNL     1     -11.277  12.160  66.387  0.00  0.00    -0.032 C 
BRANCH  22  41
ATOM     40  C   UNL     1     -11.768  11.887  63.542  0.00  0.00    +0.005 C 
ATOM     41  C   UNL     1     -12.577  12.264  64.286  0.00  0.00    +0.023 C 
ENDBRANCH  22  41
BRANCH  28  42
ATOM     42  C   UNL     1      -8.812  11.333  66.549  0.00  0.00    +0.325 C 
ATOM     43  O   UNL     1      -8.047  11.926  65.726  0.00  0.00    -0.249 OA
BRANCH  42  44
ATOM     44  O   UNL     1      -9.030   9.968  66.314  0.00  0.00    -0.444 OA
ATOM     45  C   UNL     1      -8.762   9.324  65.097  0.00  0.00    +0.256 C 
ENDBRANCH  42  44
ENDBRANCH  28  42
ENDBRANCH   1  28
BRANCH   2  46
ATOM     46  O   UNL     1      -6.194  11.206  67.556  0.00  0.00    -0.472 OA
ATOM     47  C   UNL     1      -5.277  10.326  66.989  0.00  0.00    +0.252 C 
ENDBRANCH   2  46
BRANCH   7  48
ATOM     48  C   UNL     1      -7.927   7.718  73.883  0.00  0.00    +0.350 C 
ATOM     49  O   UNL     1      -6.917   6.971  74.080  0.00  0.00    -0.247 OA
BRANCH  48  50
ATOM     50  O   UNL     1      -7.948   8.894  74.642  0.00  0.00    -0.443 OA
ATOM     51  C   UNL     1      -7.065   9.100  75.740  0.00  0.00    +0.256 C 
ENDBRANCH  48  50
ENDBRANCH   7  48
BRANCH  10  52
ATOM     52  C   UNL     1      -9.899   4.751  70.839  0.00  0.00    +0.009 C 
ATOM     53  C   UNL     1     -11.135   5.620  70.637  0.00  0.00    +0.001 C 
ENDBRANCH  10  52
BRANCH   9  54
ATOM     54  O   UNL     1      -8.927   5.629  73.444  0.00  0.00    -0.449 OA
BRANCH  54  55
ATOM     55  C   UNL     1      -9.973   5.196  74.264  0.00  0.00    +0.318 C 
ATOM     56  O   UNL     1     -10.231   5.786  75.359  0.00  0.00    -0.250 OA
ATOM     57  C   UNL     1     -10.562   3.823  74.137  0.00  0.00    +0.121 C 
ENDBRANCH  54  55
ENDBRANCH   9  54
TORSDOF 10
ENDMDL
MODEL 6
REMARK VINA RESULT:      -6.3      2.459      8.814
REMARK  Name = 
REMARK  10 active torsions:
REMARK  status: ('A' for Active; 'I' for Inactive)
REMARK    1  A    between atoms: C_2  and  C_3
REMARK    2  A    between atoms: C_19  and  C_20
REMARK    3  A    between atoms: C_19  and  C_24
REMARK    4  A    between atoms: C_20  and  O_22
REMARK    5  A    between atoms: C_29  and  O_30
REMARK    6  A    between atoms: C_42  and  C_43
REMARK    7  A    between atoms: C_46  and  O_47
REMARK    8  A    between atoms: O_47  and  C_48
REMARK    9  A    between atoms: C_51  and  C_53
REMARK   10  A    between atoms: C_53  and  O_55
REMARK                            x       y       z     vdW  Elec       q    Type
REMARK                         _______ _______ _______ _____ _____    ______ ____
ROOT
ATOM      1  C   UNL     1      -8.437   7.909  69.234  0.00  0.00    +0.026 A 
ATOM      2  C   UNL     1      -7.077   7.874  68.919  0.00  0.00    +0.137 A 
ATOM      3  C   UNL     1      -6.861   8.310  67.614  0.00  0.00    +0.051 A 
ATOM      4  C   UNL     1      -7.680   9.302  67.041  0.00  0.00    +0.047 A 
ATOM      5  N   UNL     1      -7.661   9.939  65.801  0.00  0.00    -0.304 N 
ATOM      6  C   UNL     1      -8.325  11.358  65.929  0.00  0.00    +0.120 C 
ATOM      7  C   UNL     1      -9.740  10.808  65.373  0.00  0.00    +0.268 C 
ATOM      8  O   UNL     1     -10.093   9.617  65.804  0.00  0.00    -0.209 OA
ATOM      9  C   UNL     1     -10.891  11.910  65.695  0.00  0.00    +0.213 C 
ATOM     10  C   UNL     1     -10.012  12.955  66.559  0.00  0.00    +0.072 C 
ATOM     11  C   UNL     1      -9.726  12.211  67.968  0.00  0.00    +0.070 C 
ATOM     12  N   UNL     1      -8.799  13.385  68.473  0.00  0.00    -0.269 NA
ATOM     13  C   UNL     1      -9.382  14.625  68.110  0.00  0.00    +0.099 C 
ATOM     14  C   UNL     1      -8.882  14.902  66.711  0.00  0.00    -0.013 C 
ATOM     15  C   UNL     1      -7.546  13.183  67.917  0.00  0.00    +0.073 C 
ATOM     16  C   UNL     1      -7.329  11.757  68.198  0.00  0.00    +0.024 C 
ATOM     17  C   UNL     1      -9.165  13.802  65.983  0.00  0.00    -0.025 C 
ATOM     18  C   UNL     1      -8.548  11.217  67.521  0.00  0.00    +0.055 C 
ATOM     19  C   UNL     1      -6.485   9.949  64.931  0.00  0.00    +0.112 C 
ATOM     20  C   UNL     1      -8.729   9.855  67.793  0.00  0.00    -0.007 A 
ATOM     21  C   UNL     1      -9.249   8.902  68.668  0.00  0.00    -0.003 A 
ENDROOT
BRANCH   1  28
ATOM     22  C   UNL     1      -8.811   3.646  72.502  0.00  0.00    -0.033 C 
ATOM     23  C   UNL     1      -9.631   4.075  73.678  0.00  0.00    +0.095 C 
ATOM     24  N   UNL     1     -10.184   5.322  73.352  0.00  0.00    -0.265 NA
ATOM     25  C   UNL     1     -11.196   5.312  72.295  0.00  0.00    +0.101 C 
ATOM     26  C   UNL     1     -11.176   6.605  71.531  0.00  0.00    +0.010 A 
ATOM     27  C   UNL     1     -10.286   7.406  70.813  0.00  0.00    +0.070 A 
ATOM     28  C   UNL     1      -9.008   6.966  70.266  0.00  0.00    +0.146 C 
ATOM     29  C   UNL     1      -7.928   6.903  71.178  0.00  0.00    +0.026 C 
ATOM     30  C   UNL     1      -7.922   5.865  72.415  0.00  0.00    +0.039 C 
ATOM     31  N   UNL     1     -10.505   8.638  71.342  0.00  0.00    -0.249 NA
ATOM     32  C   UNL     1     -11.760   8.704  71.855  0.00  0.00    +0.081 A 
ATOM     33  C   UNL     1     -12.644   9.764  71.951  0.00  0.00    +0.019 A 
ATOM     34  C   UNL     1     -14.002   9.524  71.793  0.00  0.00    +0.002 A 
ATOM     35  C   UNL     1     -14.487   8.225  71.648  0.00  0.00    +0.000 A 
ATOM     36  C   UNL     1     -13.626   7.140  71.801  0.00  0.00    +0.001 A 
ATOM     37  C   UNL     1     -12.262   7.412  71.832  0.00  0.00    +0.016 A 
ATOM     38  C   UNL     1      -9.314   6.394  73.084  0.00  0.00    +0.077 C 
ATOM     39  C   UNL     1      -8.604   4.640  71.626  0.00  0.00    -0.032 C 
BRANCH  22  41
ATOM     40  C   UNL     1      -9.895   1.680  71.949  0.00  0.00    +0.005 C 
ATOM     41  C   UNL     1      -8.882   2.229  72.103  0.00  0.00    +0.023 C 
ENDBRANCH  22  41
BRANCH  28  42
ATOM     42  C   UNL     1      -9.270   5.777  69.379  0.00  0.00    +0.325 C 
ATOM     43  O   UNL     1     -10.402   5.675  68.811  0.00  0.00    -0.249 OA
BRANCH  42  44
ATOM     44  O   UNL     1      -8.222   5.049  68.799  0.00  0.00    -0.444 OA
ATOM     45  C   UNL     1      -8.278   4.463  67.526  0.00  0.00    +0.256 C 
ENDBRANCH  42  44
ENDBRANCH  28  42
ENDBRANCH   1  28
BRANCH   2  46
ATOM     46  O   UNL     1      -6.262   8.005  70.001  0.00  0.00    -0.472 OA
ATOM     47  C   UNL     1      -5.121   8.787  70.163  0.00  0.00    +0.252 C 
ENDBRANCH   2  46
BRANCH   7  48
ATOM     48  C   UNL     1      -9.545  10.734  63.920  0.00  0.00    +0.350 C 
ATOM     49  O   UNL     1      -8.711  11.583  63.472  0.00  0.00    -0.247 OA
BRANCH  48  50
ATOM     50  O   UNL     1      -9.535   9.496  63.267  0.00  0.00    -0.443 OA
ATOM     51  C   UNL     1      -8.820   9.288  62.053  0.00  0.00    +0.256 C 
ENDBRANCH  48  50
ENDBRANCH   7  48
BRANCH  10  52
ATOM     52  C   UNL     1     -11.227  13.752  67.085  0.00  0.00    +0.009 C 
ATOM     53  C   UNL     1     -12.211  12.802  67.760  0.00  0.00    +0.001 C 
ENDBRANCH  10  52
BRANCH   9  54
ATOM     54  O   UNL     1     -10.673  12.746  64.405  0.00  0.00    -0.449 OA
BRANCH  54  55
ATOM     55  C   UNL     1     -11.894  12.973  63.764  0.00  0.00    +0.318 C 
ATOM     56  O   UNL     1     -12.439  14.121  63.786  0.00  0.00    -0.250 OA
ATOM     57  C   UNL     1     -12.813  11.849  63.389  0.00  0.00    +0.121 C 
ENDBRANCH  54  55
ENDBRANCH   9  54
TORSDOF 10
ENDMDL
MODEL 7
REMARK VINA RESULT:      -5.8      2.970      9.489
REMARK  Name = 
REMARK  10 active torsions:
REMARK  status: ('A' for Active; 'I' for Inactive)
REMARK    1  A    between atoms: C_2  and  C_3
REMARK    2  A    between atoms: C_19  and  C_20
REMARK    3  A    between atoms: C_19  and  C_24
REMARK    4  A    between atoms: C_20  and  O_22
REMARK    5  A    between atoms: C_29  and  O_30
REMARK    6  A    between atoms: C_42  and  C_43
REMARK    7  A    between atoms: C_46  and  O_47
REMARK    8  A    between atoms: O_47  and  C_48
REMARK    9  A    between atoms: C_51  and  C_53
REMARK   10  A    between atoms: C_53  and  O_55
REMARK                            x       y       z     vdW  Elec       q    Type
REMARK                         _______ _______ _______ _____ _____    ______ ____
ROOT
ATOM      1  C   UNL     1      -7.658   6.733  67.463  0.00  0.00    +0.026 A 
ATOM      2  C   UNL     1      -6.353   6.886  66.989  0.00  0.00    +0.137 A 
ATOM      3  C   UNL     1      -6.335   7.673  65.839  0.00  0.00    +0.051 A 
ATOM      4  C   UNL     1      -7.263   8.717  65.666  0.00  0.00    +0.047 A 
ATOM      5  N   UNL     1      -7.438   9.664  64.658  0.00  0.00    -0.304 N 
ATOM      6  C   UNL     1      -8.133  10.943  65.254  0.00  0.00    +0.120 C 
ATOM      7  C   UNL     1      -9.588  10.458  64.742  0.00  0.00    +0.268 C 
ATOM      8  O   UNL     1      -9.832   9.172  64.866  0.00  0.00    -0.209 OA
ATOM      9  C   UNL     1     -10.726  11.343  65.493  0.00  0.00    +0.213 C 
ATOM     10  C   UNL     1      -9.779  12.180  66.499  0.00  0.00    +0.072 C 
ATOM     11  C   UNL     1      -9.274  11.108  67.603  0.00  0.00    +0.070 C 
ATOM     12  N   UNL     1      -8.333  12.169  68.297  0.00  0.00    -0.269 NA
ATOM     13  C   UNL     1      -9.009  13.413  68.364  0.00  0.00    +0.099 C 
ATOM     14  C   UNL     1      -8.716  14.093  67.047  0.00  0.00    -0.013 C 
ATOM     15  C   UNL     1      -7.162  12.218  67.559  0.00  0.00    +0.073 C 
ATOM     16  C   UNL     1      -6.853  10.790  67.406  0.00  0.00    +0.024 C 
ATOM     17  C   UNL     1      -9.053  13.212  66.082  0.00  0.00    -0.025 C 
ATOM     18  C   UNL     1      -8.131  10.362  66.759  0.00  0.00    +0.055 C 
ATOM     19  C   UNL     1      -6.393   9.997  63.690  0.00  0.00    +0.112 C 
ATOM     20  C   UNL     1      -8.220   8.967  66.664  0.00  0.00    -0.007 A 
ATOM     21  C   UNL     1      -8.577   7.778  67.296  0.00  0.00    -0.003 A 
ENDROOT
BRANCH   1  28
ATOM     22  C   UNL     1      -8.499   1.542  68.620  0.00  0.00    -0.033 C 
ATOM     23  C   UNL     1      -8.304   1.392  70.097  0.00  0.00    +0.095 C 
ATOM     24  N   UNL     1      -8.230   2.688  70.628  0.00  0.00    -0.265 NA
ATOM     25  C   UNL     1      -9.470   3.464  70.587  0.00  0.00    +0.101 C 
ATOM     26  C   UNL     1      -9.172   4.930  70.452  0.00  0.00    +0.010 A 
ATOM     27  C   UNL     1      -8.476   5.804  69.615  0.00  0.00    +0.070 A 
ATOM     28  C   UNL     1      -8.045   5.507  68.255  0.00  0.00    +0.146 C 
ATOM     29  C   UNL     1      -6.862   4.739  68.130  0.00  0.00    +0.026 C 
ATOM     30  C   UNL     1      -6.785   3.211  68.646  0.00  0.00    +0.039 C 
ATOM     31  N   UNL     1      -7.758   6.549  70.497  0.00  0.00    -0.249 NA
ATOM     32  C   UNL     1      -8.378   6.559  71.705  0.00  0.00    +0.081 A 
ATOM     33  C   UNL     1      -8.432   7.532  72.686  0.00  0.00    +0.019 A 
ATOM     34  C   UNL     1      -9.603   7.689  73.414  0.00  0.00    +0.002 A 
ATOM     35  C   UNL     1     -10.675   6.814  73.244  0.00  0.00    +0.000 A 
ATOM     36  C   UNL     1     -10.530   5.685  72.439  0.00  0.00    +0.001 A 
ATOM     37  C   UNL     1      -9.400   5.625  71.629  0.00  0.00    +0.016 A 
ATOM     38  C   UNL     1      -7.195   3.536  70.192  0.00  0.00    +0.077 C 
ATOM     39  C   UNL     1      -8.272   2.792  68.193  0.00  0.00    -0.032 C 
BRANCH  22  41
ATOM     40  C   UNL     1     -10.301   0.097  68.553  0.00  0.00    +0.005 C 
ATOM     41  C   UNL     1      -9.455   0.633  67.964  0.00  0.00    +0.023 C 
ENDBRANCH  22  41
BRANCH  28  42
ATOM     42  C   UNL     1      -9.259   5.091  67.466  0.00  0.00    +0.325 C 
ATOM     43  O   UNL     1     -10.411   5.364  67.927  0.00  0.00    -0.249 OA
BRANCH  42  44
ATOM     44  O   UNL     1      -9.189   4.842  66.088  0.00  0.00    -0.444 OA
ATOM     45  C   UNL     1     -10.177   4.166  65.357  0.00  0.00    +0.256 C 
ENDBRANCH  42  44
ENDBRANCH  28  42
ENDBRANCH   1  28
BRANCH   2  46
ATOM     46  O   UNL     1      -5.403   6.782  67.958  0.00  0.00    -0.472 OA
ATOM     47  C   UNL     1      -4.763   7.782  68.685  0.00  0.00    +0.252 C 
ENDBRANCH   2  46
BRANCH   7  48
ATOM     48  C   UNL     1      -9.590  10.793  63.312  0.00  0.00    +0.350 C 
ATOM     49  O   UNL     1      -8.811  11.750  63.010  0.00  0.00    -0.247 OA
BRANCH  48  50
ATOM     50  O   UNL     1      -9.688   9.784  62.348  0.00  0.00    -0.443 OA
ATOM     51  C   UNL     1      -8.864   9.768  61.185  0.00  0.00    +0.256 C 
ENDBRANCH  48  50
ENDBRANCH   7  48
BRANCH  10  52
ATOM     52  C   UNL     1     -10.941  12.712  67.369  0.00  0.00    +0.009 C 
ATOM     53  C   UNL     1     -11.830  11.553  67.803  0.00  0.00    +0.001 C 
ENDBRANCH  10  52
BRANCH   9  54
ATOM     54  O   UNL     1     -10.720  12.509  64.468  0.00  0.00    -0.449 OA
BRANCH  54  55
ATOM     55  C   UNL     1     -12.022  12.963  64.243  0.00  0.00    +0.318 C 
ATOM     56  O   UNL     1     -12.832  12.293  63.529  0.00  0.00    -0.250 OA
ATOM     57  C   UNL     1     -12.409  14.397  64.453  0.00  0.00    +0.121 C 
ENDBRANCH  54  55
ENDBRANCH   9  54
TORSDOF 10
ENDMDL
MODEL 8
REMARK VINA RESULT:      -5.6      2.016      4.325
REMARK  Name = 
REMARK  10 active torsions:
REMARK  status: ('A' for Active; 'I' for Inactive)
REMARK    1  A    between atoms: C_2  and  C_3
REMARK    2  A    between atoms: C_19  and  C_20
REMARK    3  A    between atoms: C_19  and  C_24
REMARK    4  A    between atoms: C_20  and  O_22
REMARK    5  A    between atoms: C_29  and  O_30
REMARK    6  A    between atoms: C_42  and  C_43
REMARK    7  A    between atoms: C_46  and  O_47
REMARK    8  A    between atoms: O_47  and  C_48
REMARK    9  A    between atoms: C_51  and  C_53
REMARK   10  A    between atoms: C_53  and  O_55
REMARK                            x       y       z     vdW  Elec       q    Type
REMARK                         _______ _______ _______ _____ _____    ______ ____
ROOT
ATOM      1  C   UNL     1      -7.577  13.116  68.422  0.00  0.00    +0.026 A 
ATOM      2  C   UNL     1      -6.277  13.225  68.918  0.00  0.00    +0.137 A 
ATOM      3  C   UNL     1      -6.025  12.235  69.866  0.00  0.00    +0.051 A 
ATOM      4  C   UNL     1      -6.621  10.965  69.755  0.00  0.00    +0.047 A 
ATOM      5  N   UNL     1      -6.512   9.804  70.519  0.00  0.00    -0.304 N 
ATOM      6  C   UNL     1      -6.829   8.552  69.621  0.00  0.00    +0.120 C 
ATOM      7  C   UNL     1      -8.355   8.489  70.150  0.00  0.00    +0.268 C 
ATOM      8  O   UNL     1      -8.950   9.651  70.301  0.00  0.00    -0.209 OA
ATOM      9  C   UNL     1      -9.208   7.519  69.164  0.00  0.00    +0.213 C 
ATOM     10  C   UNL     1      -8.077   7.225  68.049  0.00  0.00    +0.072 C 
ATOM     11  C   UNL     1      -7.906   8.616  67.237  0.00  0.00    +0.070 C 
ATOM     12  N   UNL     1      -6.714   8.040  66.376  0.00  0.00    -0.269 NA
ATOM     13  C   UNL     1      -7.015   6.707  66.001  0.00  0.00    +0.099 C 
ATOM     14  C   UNL     1      -6.527   5.855  67.149  0.00  0.00    -0.013 C 
ATOM     15  C   UNL     1      -5.567   8.150  67.145  0.00  0.00    +0.073 C 
ATOM     16  C   UNL     1      -5.668   9.535  67.625  0.00  0.00    +0.024 C 
ATOM     17  C   UNL     1      -7.086   6.366  68.265  0.00  0.00    -0.025 C 
ATOM     18  C   UNL     1      -7.007   9.436  68.283  0.00  0.00    +0.055 C 
ATOM     19  C   UNL     1      -5.405   9.561  71.444  0.00  0.00    +0.112 C 
ATOM     20  C   UNL     1      -7.481  10.693  68.679  0.00  0.00    -0.007 A 
ATOM     21  C   UNL     1      -8.165  11.849  68.307  0.00  0.00    -0.003 A 
ENDROOT
BRANCH   1  28
ATOM     22  C   UNL     1      -8.905  18.295  67.776  0.00  0.00    -0.033 C 
ATOM     23  C   UNL     1      -9.431  18.434  66.382  0.00  0.00    +0.095 C 
ATOM     24  N   UNL     1      -9.606  17.134  65.883  0.00  0.00    -0.265 NA
ATOM     25  C   UNL     1     -10.674  16.353  66.508  0.00  0.00    +0.101 C 
ATOM     26  C   UNL     1     -10.336  14.889  66.493  0.00  0.00    +0.010 A 
ATOM     27  C   UNL     1      -9.321  14.025  66.907  0.00  0.00    +0.070 A 
ATOM     28  C   UNL     1      -8.301  14.334  67.901  0.00  0.00    +0.146 C 
ATOM     29  C   UNL     1      -7.206  15.109  67.450  0.00  0.00    +0.026 C 
ATOM     30  C   UNL     1      -7.393  16.633  66.952  0.00  0.00    +0.039 C 
ATOM     31  N   UNL     1      -9.099  13.277  65.794  0.00  0.00    -0.249 NA
ATOM     32  C   UNL     1     -10.215  13.255  65.021  0.00  0.00    +0.081 A 
ATOM     33  C   UNL     1     -10.718  12.274  64.187  0.00  0.00    +0.019 A 
ATOM     34  C   UNL     1     -12.093  12.107  64.097  0.00  0.00    +0.002 A 
ATOM     35  C   UNL     1     -12.964  12.978  64.749  0.00  0.00    +0.000 A 
ATOM     36  C   UNL     1     -12.465  14.113  65.386  0.00  0.00    +0.001 A 
ATOM     37  C   UNL     1     -11.087  14.185  65.566  0.00  0.00    +0.016 A 
ATOM     38  C   UNL     1      -8.482  16.295  65.784  0.00  0.00    +0.077 C 
ATOM     39  C   UNL     1      -8.493  17.049  68.051  0.00  0.00    -0.032 C 
BRANCH  22  41
ATOM     40  C   UNL     1     -10.162  20.079  68.535  0.00  0.00    +0.005 C 
ATOM     41  C   UNL     1      -9.445  19.204  68.801  0.00  0.00    +0.023 C 
ENDBRANCH  22  41
BRANCH  28  42
ATOM     42  C   UNL     1      -9.003  14.751  69.168  0.00  0.00    +0.325 C 
ATOM     43  O   UNL     1      -8.409  15.543  69.964  0.00  0.00    -0.249 OA
BRANCH  42  44
ATOM     44  O   UNL     1     -10.398  14.688  69.289  0.00  0.00    -0.444 OA
ATOM     45  C   UNL     1     -11.154  15.507  70.140  0.00  0.00    +0.256 C 
ENDBRANCH  42  44
ENDBRANCH  28  42
ENDBRANCH   1  28
BRANCH   2  46
ATOM     46  O   UNL     1      -5.406  13.803  68.047  0.00  0.00    -0.472 OA
ATOM     47  C   UNL     1      -4.078  13.483  67.775  0.00  0.00    +0.252 C 
ENDBRANCH   2  46
BRANCH   7  48
ATOM     48  C   UNL     1      -8.246   7.852  71.469  0.00  0.00    +0.350 C 
ATOM     49  O   UNL     1      -7.132   7.272  71.667  0.00  0.00    -0.247 OA
BRANCH  48  50
ATOM     50  O   UNL     1      -8.804   8.460  72.599  0.00  0.00    -0.443 OA
ATOM     51  C   UNL     1      -9.874   7.864  73.327  0.00  0.00    +0.256 C 
ENDBRANCH  48  50
ENDBRANCH   7  48
BRANCH  10  52
ATOM     52  C   UNL     1      -9.053   6.605  67.025  0.00  0.00    +0.009 C 
ATOM     53  C   UNL     1     -10.307   7.466  66.923  0.00  0.00    +0.001 C 
ENDBRANCH  10  52
BRANCH   9  54
ATOM     54  O   UNL     1      -8.864   6.199  69.906  0.00  0.00    -0.449 OA
BRANCH  54  55
ATOM     55  C   UNL     1     -10.034   5.523  70.260  0.00  0.00    +0.318 C 
ATOM     56  O   UNL     1     -10.068   4.253  70.301  0.00  0.00    -0.250 OA
ATOM     57  C   UNL     1     -11.379   6.184  70.205  0.00  0.00    +0.121 C 
ENDBRANCH  54  55
ENDBRANCH   9  54
TORSDOF 10
ENDMDL
MODEL 9
REMARK VINA RESULT:      -5.6      3.405      7.320
REMARK  Name = 
REMARK  10 active torsions:
REMARK  status: ('A' for Active; 'I' for Inactive)
REMARK    1  A    between atoms: C_2  and  C_3
REMARK    2  A    between atoms: C_19  and  C_20
REMARK    3  A    between atoms: C_19  and  C_24
REMARK    4  A    between atoms: C_20  and  O_22
REMARK    5  A    between atoms: C_29  and  O_30
REMARK    6  A    between atoms: C_42  and  C_43
REMARK    7  A    between atoms: C_46  and  O_47
REMARK    8  A    between atoms: O_47  and  C_48
REMARK    9  A    between atoms: C_51  and  C_53
REMARK   10  A    between atoms: C_53  and  O_55
REMARK                            x       y       z     vdW  Elec       q    Type
REMARK                         _______ _______ _______ _____ _____    ______ ____
ROOT
ATOM      1  C   UNL     1      -7.915  16.801  66.720  0.00  0.00    +0.026 A 
ATOM      2  C   UNL     1      -9.013  17.551  66.296  0.00  0.00    +0.137 A 
ATOM      3  C   UNL     1      -9.878  16.771  65.530  0.00  0.00    +0.051 A 
ATOM      4  C   UNL     1     -10.037  15.398  65.798  0.00  0.00    +0.047 A 
ATOM      5  N   UNL     1     -10.847  14.416  65.230  0.00  0.00    -0.304 N 
ATOM      6  C   UNL     1     -11.122  13.286  66.289  0.00  0.00    +0.120 C 
ATOM      7  C   UNL     1      -9.950  12.353  65.680  0.00  0.00    +0.268 C 
ATOM      8  O   UNL     1      -8.857  12.985  65.316  0.00  0.00    -0.209 OA
ATOM      9  C   UNL     1      -9.615  11.175  66.748  0.00  0.00    +0.213 C 
ATOM     10  C   UNL     1     -10.566  11.651  67.964  0.00  0.00    +0.072 C 
ATOM     11  C   UNL     1      -9.862  12.981  68.561  0.00  0.00    +0.070 C 
ATOM     12  N   UNL     1     -11.047  13.232  69.574  0.00  0.00    -0.269 NA
ATOM     13  C   UNL     1     -11.451  11.992  70.131  0.00  0.00    +0.099 C 
ATOM     14  C   UNL     1     -12.467  11.436  69.160  0.00  0.00    -0.013 C 
ATOM     15  C   UNL     1     -12.055  13.873  68.872  0.00  0.00    +0.073 C 
ATOM     16  C   UNL     1     -11.302  14.927  68.178  0.00  0.00    +0.024 C 
ATOM     17  C   UNL     1     -11.880  11.453  67.946  0.00  0.00    -0.025 C 
ATOM     18  C   UNL     1     -10.323  14.054  67.461  0.00  0.00    +0.055 C 
ATOM     19  C   UNL     1     -12.028  14.727  64.425  0.00  0.00    +0.112 C 
ATOM     20  C   UNL     1      -9.313  14.807  66.847  0.00  0.00    -0.007 A 
ATOM     21  C   UNL     1      -8.078  15.436  66.993  0.00  0.00    -0.003 A 
ENDROOT
BRANCH   1  28
ATOM     22  C   UNL     1      -3.401  18.146  69.330  0.00  0.00    -0.033 C 
ATOM     23  C   UNL     1      -2.381  18.475  68.286  0.00  0.00    +0.095 C 
ATOM     24  N   UNL     1      -3.063  18.547  67.062  0.00  0.00    -0.265 NA
ATOM     25  C   UNL     1      -3.986  19.674  66.915  0.00  0.00    +0.101 C 
ATOM     26  C   UNL     1      -5.135  19.303  66.022  0.00  0.00    +0.010 A 
ATOM     27  C   UNL     1      -6.136  18.336  65.918  0.00  0.00    +0.070 A 
ATOM     28  C   UNL     1      -6.593  17.473  67.001  0.00  0.00    +0.146 C 
ATOM     29  C   UNL     1      -5.786  16.344  67.280  0.00  0.00    +0.026 C 
ATOM     30  C   UNL     1      -4.278  16.495  67.837  0.00  0.00    +0.039 C 
ATOM     31  N   UNL     1      -6.033  17.942  64.621  0.00  0.00    -0.249 NA
ATOM     32  C   UNL     1      -5.486  18.937  63.878  0.00  0.00    +0.081 A 
ATOM     33  C   UNL     1      -5.688  19.295  62.557  0.00  0.00    +0.019 A 
ATOM     34  C   UNL     1      -5.664  20.640  62.213  0.00  0.00    +0.002 A 
ATOM     35  C   UNL     1      -5.337  21.614  63.155  0.00  0.00    +0.000 A 
ATOM     36  C   UNL     1      -4.892  21.236  64.421  0.00  0.00    +0.001 A 
ATOM     37  C   UNL     1      -5.046  19.900  64.774  0.00  0.00    +0.016 A 
ATOM     38  C   UNL     1      -3.730  17.401  66.595  0.00  0.00    +0.077 C 
ATOM     39  C   UNL     1      -4.569  17.748  68.805  0.00  0.00    -0.032 C 
BRANCH  22  41
ATOM     40  C   UNL     1      -3.048  19.978  70.694  0.00  0.00    +0.005 C 
ATOM     41  C   UNL     1      -3.301  18.846  70.623  0.00  0.00    +0.023 C 
ENDBRANCH  22  41
BRANCH  28  42
ATOM     42  C   UNL     1      -7.015  18.355  68.147  0.00  0.00    +0.325 C 
ATOM     43  O   UNL     1      -7.166  17.834  69.296  0.00  0.00    -0.249 OA
BRANCH  42  44
ATOM     44  O   UNL     1      -6.808  19.741  68.121  0.00  0.00    -0.444 OA
ATOM     45  C   UNL     1      -6.475  20.511  69.245  0.00  0.00    +0.256 C 
ENDBRANCH  42  44
ENDBRANCH  28  42
ENDBRANCH   1  28
BRANCH   2  46
ATOM     46  O   UNL     1      -9.318  18.590  67.121  0.00  0.00    -0.472 OA
ATOM     47  C   UNL     1     -10.507  19.302  67.250  0.00  0.00    +0.252 C 
ENDBRANCH   2  46
BRANCH   7  48
ATOM     48  C   UNL     1     -10.558  11.755  64.485  0.00  0.00    +0.350 C 
ATOM     49  O   UNL     1     -11.827  11.835  64.462  0.00  0.00    -0.247 OA
BRANCH  48  50
ATOM     50  O   UNL     1      -9.936  11.874  63.237  0.00  0.00    -0.443 OA
ATOM     51  C   UNL     1      -9.341  10.758  62.581  0.00  0.00    +0.256 C 
ENDBRANCH  48  50
ENDBRANCH   7  48
BRANCH  10  52
ATOM     52  C   UNL     1      -9.937  10.701  69.009  0.00  0.00    +0.009 C 
ATOM     53  C   UNL     1      -8.422  10.688  68.845  0.00  0.00    +0.001 C 
ENDBRANCH  10  52
BRANCH   9  54
ATOM     54  O   UNL     1     -10.704  10.190  66.242  0.00  0.00    -0.449 OA
BRANCH  54  55
ATOM     55  C   UNL     1     -10.187   8.894  66.168  0.00  0.00    +0.318 C 
ATOM     56  O   UNL     1     -10.671   7.957  66.877  0.00  0.00    -0.250 OA
ATOM     57  C   UNL     1      -8.827   8.614  65.603  0.00  0.00    +0.121 C 
ENDBRANCH  54  55
ENDBRANCH   9  54
TORSDOF 10
ENDMDL
