MODEL 1
REMARK VINA RESULT:      -4.5      0.000      0.000
REMARK  Name = 
REMARK  0 active torsions:
REMARK  status: ('A' for Active; 'I' for Inactive)
REMARK                            x       y       z     vdW  Elec       q    Type
REMARK                         _______ _______ _______ _____ _____    ______ ____
ROOT
ATOM      1  S   UNL     1     -11.413  12.174  67.292  0.00  0.00    -0.028 S 
ATOM      2  C   UNL     1     -12.046  13.119  66.108  0.00  0.00    +0.139 A 
ATOM      3  C   UNL     1     -11.540  14.406  65.959  0.00  0.00    +0.143 A 
ATOM      4  C   UNL     1     -11.498  14.958  64.685  0.00  0.00    +0.185 A 
ATOM      5  N   UNL     1     -10.891  16.162  64.822  0.00  0.00    -0.203 NA
ATOM      6  C   UNL     1     -10.356  16.230  66.061  0.00  0.00    +0.200 A 
ATOM      7  N   UNL     1     -12.380  14.443  63.796  0.00  0.00    -0.203 NA
ATOM      8  C   UNL     1     -12.547  13.099  63.826  0.00  0.00    +0.201 A 
ATOM      9  N   UNL     1     -10.986  15.296  66.817  0.00  0.00    -0.219 NA
ATOM     10  N   UNL     1     -12.724  12.581  65.065  0.00  0.00    -0.215 NA
ENDROOT
TORSDOF 0
ENDMDL
MODEL 2
REMARK VINA RESULT:      -4.5      1.701      3.328
REMARK  Name = 
REMARK  0 active torsions:
REMARK  status: ('A' for Active; 'I' for Inactive)
REMARK                            x       y       z     vdW  Elec       q    Type
REMARK                         _______ _______ _______ _____ _____    ______ ____
ROOT
ATOM      1  S   UNL     1      -8.865  14.340  66.981  0.00  0.00    -0.028 S 
ATOM      2  C   UNL     1      -9.571  15.224  65.792  0.00  0.00    +0.139 A 
ATOM      3  C   UNL     1     -10.562  14.617  65.027  0.00  0.00    +0.143 A 
ATOM      4  C   UNL     1     -11.600  15.403  64.544  0.00  0.00    +0.185 A 
ATOM      5  N   UNL     1     -12.449  14.552  63.918  0.00  0.00    -0.203 NA
ATOM      6  C   UNL     1     -12.087  13.287  64.227  0.00  0.00    +0.200 A 
ATOM      7  N   UNL     1     -11.323  16.722  64.414  0.00  0.00    -0.203 NA
ATOM      8  C   UNL     1     -10.606  17.285  65.415  0.00  0.00    +0.201 A 
ATOM      9  N   UNL     1     -10.803  13.336  64.659  0.00  0.00    -0.219 NA
ATOM     10  N   UNL     1      -9.513  16.578  65.792  0.00  0.00    -0.215 NA
ENDROOT
TORSDOF 0
ENDMDL
MODEL 3
REMARK VINA RESULT:      -4.3      5.577      6.954
REMARK  Name = 
REMARK  0 active torsions:
REMARK  status: ('A' for Active; 'I' for Inactive)
REMARK                            x       y       z     vdW  Elec       q    Type
REMARK                         _______ _______ _______ _____ _____    ______ ____
ROOT
ATOM      1  S   UNL     1     -11.020  15.616  70.069  0.00  0.00    -0.028 S 
ATOM      2  C   UNL     1     -12.413  15.043  70.723  0.00  0.00    +0.139 A 
ATOM      3  C   UNL     1     -12.566  13.665  70.829  0.00  0.00    +0.143 A 
ATOM      4  C   UNL     1     -13.295  13.159  71.898  0.00  0.00    +0.185 A 
ATOM      5  N   UNL     1     -13.211  11.810  71.799  0.00  0.00    -0.203 NA
ATOM      6  C   UNL     1     -12.269  11.508  70.879  0.00  0.00    +0.200 A 
ATOM      7  N   UNL     1     -14.196  14.010  72.445  0.00  0.00    -0.203 NA
ATOM      8  C   UNL     1     -13.795  15.295  72.589  0.00  0.00    +0.201 A 
ATOM      9  N   UNL     1     -12.093  12.615  70.114  0.00  0.00    -0.219 NA
ATOM     10  N   UNL     1     -13.204  15.828  71.493  0.00  0.00    -0.215 NA
ENDROOT
TORSDOF 0
ENDMDL
MODEL 4
REMARK VINA RESULT:      -4.1      5.454      6.436
REMARK  Name = 
REMARK  0 active torsions:
REMARK  status: ('A' for Active; 'I' for Inactive)
REMARK                            x       y       z     vdW  Elec       q    Type
REMARK                         _______ _______ _______ _____ _____    ______ ____
ROOT
ATOM      1  S   UNL     1     -12.562  12.021  71.042  0.00  0.00    -0.028 S 
ATOM      2  C   UNL     1     -12.611  13.637  70.758  0.00  0.00    +0.139 A 
ATOM      3  C   UNL     1     -12.657  14.492  71.854  0.00  0.00    +0.143 A 
ATOM      4  C   UNL     1     -12.040  15.733  71.754  0.00  0.00    +0.185 A 
ATOM      5  N   UNL     1     -12.166  16.309  72.974  0.00  0.00    -0.203 NA
ATOM      6  C   UNL     1     -12.602  15.372  73.845  0.00  0.00    +0.200 A 
ATOM      7  N   UNL     1     -11.892  16.212  70.496  0.00  0.00    -0.203 NA
ATOM      8  C   UNL     1     -11.517  15.314  69.554  0.00  0.00    +0.201 A 
ATOM      9  N   UNL     1     -13.152  14.374  73.110  0.00  0.00    -0.219 NA
ATOM     10  N   UNL     1     -12.218  14.155  69.569  0.00  0.00    -0.215 NA
ENDROOT
TORSDOF 0
ENDMDL
MODEL 5
REMARK VINA RESULT:      -4.1      2.373      4.162
REMARK  Name = 
REMARK  0 active torsions:
REMARK  status: ('A' for Active; 'I' for Inactive)
REMARK                            x       y       z     vdW  Elec       q    Type
REMARK                         _______ _______ _______ _____ _____    ______ ____
ROOT
ATOM      1  S   UNL     1     -11.406  16.003  69.447  0.00  0.00    -0.028 S 
ATOM      2  C   UNL     1     -10.637  16.804  68.237  0.00  0.00    +0.139 A 
ATOM      3  C   UNL     1     -10.543  16.181  66.997  0.00  0.00    +0.143 A 
ATOM      4  C   UNL     1     -10.558  16.971  65.855  0.00  0.00    +0.185 A 
ATOM      5  N   UNL     1     -10.539  16.111  64.808  0.00  0.00    -0.203 NA
ATOM      6  C   UNL     1     -10.767  14.865  65.278  0.00  0.00    +0.200 A 
ATOM      7  N   UNL     1     -10.159  18.254  66.028  0.00  0.00    -0.203 NA
ATOM      8  C   UNL     1     -10.598  18.871  67.151  0.00  0.00    +0.201 A 
ATOM      9  N   UNL     1     -10.492  14.884  66.606  0.00  0.00    -0.219 NA
ATOM     10  N   UNL     1     -10.455  18.146  68.286  0.00  0.00    -0.215 NA
ENDROOT
TORSDOF 0
ENDMDL
MODEL 6
REMARK VINA RESULT:      -4.0      2.873      3.762
REMARK  Name = 
REMARK  0 active torsions:
REMARK  status: ('A' for Active; 'I' for Inactive)
REMARK                            x       y       z     vdW  Elec       q    Type
REMARK                         _______ _______ _______ _____ _____    ______ ____
ROOT
ATOM      1  S   UNL     1     -10.762  16.098  69.601  0.00  0.00    -0.028 S 
ATOM      2  C   UNL     1     -10.843  16.295  67.973  0.00  0.00    +0.139 A 
ATOM      3  C   UNL     1     -10.584  17.560  67.455  0.00  0.00    +0.143 A 
ATOM      4  C   UNL     1      -9.983  17.654  66.206  0.00  0.00    +0.185 A 
ATOM      5  N   UNL     1      -9.777  18.976  65.992  0.00  0.00    -0.203 NA
ATOM      6  C   UNL     1      -9.996  19.634  67.152  0.00  0.00    +0.200 A 
ATOM      7  N   UNL     1     -10.154  16.584  65.394  0.00  0.00    -0.203 NA
ATOM      8  C   UNL     1     -10.057  15.366  65.979  0.00  0.00    +0.201 A 
ATOM      9  N   UNL     1     -10.741  18.816  67.937  0.00  0.00    -0.219 NA
ATOM     10  N   UNL     1     -10.758  15.237  67.131  0.00  0.00    -0.215 NA
ENDROOT
TORSDOF 0
ENDMDL
MODEL 7
REMARK VINA RESULT:      -4.0      3.009      4.051
REMARK  Name = 
REMARK  0 active torsions:
REMARK  status: ('A' for Active; 'I' for Inactive)
REMARK                            x       y       z     vdW  Elec       q    Type
REMARK                         _______ _______ _______ _____ _____    ______ ____
ROOT
ATOM      1  S   UNL     1     -10.696  14.885  65.182  0.00  0.00    -0.028 S 
ATOM      2  C   UNL     1     -10.471  15.591  66.647  0.00  0.00    +0.139 A 
ATOM      3  C   UNL     1     -10.366  16.977  66.696  0.00  0.00    +0.143 A 
ATOM      4  C   UNL     1     -10.846  17.639  67.818  0.00  0.00    +0.185 A 
ATOM      5  N   UNL     1     -10.694  18.961  67.561  0.00  0.00    -0.203 NA
ATOM      6  C   UNL     1     -10.384  19.108  66.255  0.00  0.00    +0.200 A 
ATOM      7  N   UNL     1     -10.908  16.900  68.951  0.00  0.00    -0.203 NA
ATOM      8  C   UNL     1     -11.348  15.627  68.812  0.00  0.00    +0.201 A 
ATOM      9  N   UNL     1      -9.921  17.910  65.819  0.00  0.00    -0.219 NA
ATOM     10  N   UNL     1     -10.774  14.939  67.796  0.00  0.00    -0.215 NA
ENDROOT
TORSDOF 0
ENDMDL
MODEL 8
REMARK VINA RESULT:      -4.0      1.891      3.282
REMARK  Name = 
REMARK  0 active torsions:
REMARK  status: ('A' for Active; 'I' for Inactive)
REMARK                            x       y       z     vdW  Elec       q    Type
REMARK                         _______ _______ _______ _____ _____    ______ ____
ROOT
ATOM      1  S   UNL     1     -10.541  10.424  67.098  0.00  0.00    -0.028 S 
ATOM      2  C   UNL     1     -10.879  11.973  66.671  0.00  0.00    +0.139 A 
ATOM      3  C   UNL     1     -11.432  12.199  65.415  0.00  0.00    +0.143 A 
ATOM      4  C   UNL     1     -12.319  13.257  65.262  0.00  0.00    +0.185 A 
ATOM      5  N   UNL     1     -12.758  13.190  63.981  0.00  0.00    -0.203 NA
ATOM      6  C   UNL     1     -12.366  12.007  63.458  0.00  0.00    +0.200 A 
ATOM      7  N   UNL     1     -12.195  14.258  66.164  0.00  0.00    -0.203 NA
ATOM      8  C   UNL     1     -11.974  13.885  67.447  0.00  0.00    +0.201 A 
ATOM      9  N   UNL     1     -11.346  11.551  64.227  0.00  0.00    -0.219 NA
ATOM     10  N   UNL     1     -11.008  12.948  67.604  0.00  0.00    -0.215 NA
ENDROOT
TORSDOF 0
ENDMDL
MODEL 9
REMARK VINA RESULT:      -3.9      2.801      4.215
REMARK  Name = 
REMARK  0 active torsions:
REMARK  status: ('A' for Active; 'I' for Inactive)
REMARK                            x       y       z     vdW  Elec       q    Type
REMARK                         _______ _______ _______ _____ _____    ______ ____
ROOT
ATOM      1  S   UNL     1     -10.091  14.456  65.452  0.00  0.00    -0.028 S 
ATOM      2  C   UNL     1     -10.625  15.824  66.188  0.00  0.00    +0.139 A 
ATOM      3  C   UNL     1     -11.124  15.717  67.481  0.00  0.00    +0.143 A 
ATOM      4  C   UNL     1     -10.944  16.784  68.352  0.00  0.00    +0.185 A 
ATOM      5  N   UNL     1     -11.445  16.379  69.544  0.00  0.00    -0.203 NA
ATOM      6  C   UNL     1     -11.679  15.050  69.478  0.00  0.00    +0.200 A 
ATOM      7  N   UNL     1     -10.765  17.992  67.766  0.00  0.00    -0.203 NA
ATOM      8  C   UNL     1      -9.970  18.014  66.670  0.00  0.00    +0.201 A 
ATOM      9  N   UNL     1     -11.745  14.724  68.163  0.00  0.00    -0.219 NA
ATOM     10  N   UNL     1     -10.242  17.050  65.757  0.00  0.00    -0.215 NA
ENDROOT
TORSDOF 0
ENDMDL
