MODEL 1
REMARK VINA RESULT:      -6.7      0.000      0.000
REMARK  Name = 
REMARK  6 active torsions:
REMARK  status: ('A' for Active; 'I' for Inactive)
REMARK    1  A    between atoms: C_2  and  C_3
REMARK    2  A    between atoms: C_3  and  N_4
REMARK    3  A    between atoms: N_4  and  C_5
REMARK    4  A    between atoms: C_15  and  N_16
REMARK    5  A    between atoms: C_30  and  O_31
REMARK    6  A    between atoms: O_31  and  C_32
REMARK                            x       y       z     vdW  Elec       q    Type
REMARK                         _______ _______ _______ _____ _____    ______ ____
ROOT
ATOM      1  C   UNL     1      -8.651  13.505  68.390  0.00  0.00    +0.099 C 
ATOM      2  C   UNL     1     -10.244  14.224  68.241  0.00  0.00    +0.217 C 
ATOM      3  C   UNL     1      -9.647  15.687  67.808  0.00  0.00    +0.043 C 
ATOM      4  C   UNL     1      -8.063  15.369  68.042  0.00  0.00    +0.009 C 
ATOM      5  C   UNL     1      -7.660  16.635  66.967  0.00  0.00    +0.000 C 
ATOM      6  C   UNL     1      -7.499  17.538  68.416  0.00  0.00    +0.000 C 
ATOM      7  C   UNL     1      -9.095  17.935  68.358  0.00  0.00    +0.000 C 
ATOM      8  C   UNL     1      -6.984  18.902  67.678  0.00  0.00    +0.001 C 
ATOM      9  C   UNL     1      -5.401  18.455  67.462  0.00  0.00    +0.003 C 
ATOM     10  C   UNL     1      -5.079  19.790  66.552  0.00  0.00    +0.034 C 
ATOM     11  C   UNL     1      -5.029  21.002  67.687  0.00  0.00    +0.166 C 
ATOM     12  C   UNL     1      -5.220  19.942  69.067  0.00  0.00    +0.088 C 
ATOM     13  O   UNL     1      -3.494  20.916  67.765  0.00  0.00    -0.222 OA
ATOM     14  C   UNL     1      -5.725  17.557  66.107  0.00  0.00    +0.000 C 
ATOM     15  C   UNL     1      -7.617  19.152  66.458  0.00  0.00    +0.000 C 
ATOM     16  C   UNL     1      -6.849  19.888  68.783  0.00  0.00    +0.019 C 
ATOM     17  C   UNL     1      -6.086  16.280  66.880  0.00  0.00    +0.000 C 
ATOM     18  C   UNL     1      -9.927  15.985  66.428  0.00  0.00    +0.004 C 
ATOM     19  C   UNL     1      -9.850  16.695  68.845  0.00  0.00    +0.004 C 
ATOM     20  C   UNL     1      -8.190  14.161  66.932  0.00  0.00    +0.059 C 
ENDROOT
BRANCH  12  21
ATOM     21  N   UNL     1      -5.336  21.158  70.060  0.00  0.00    -0.267 NA
ATOM     22  C   UNL     1      -6.013  20.465  71.158  0.00  0.00    +0.105 C 
ATOM     23  C   UNL     1      -5.212  19.217  71.518  0.00  0.00    +0.159 C 
ATOM     24  O   UNL     1      -4.134  19.684  72.275  0.00  0.00    -0.351 OA
ATOM     25  C   UNL     1      -3.826  21.007  71.995  0.00  0.00    +0.159 C 
ATOM     26  C   UNL     1      -3.957  21.300  70.530  0.00  0.00    +0.105 C 
ENDBRANCH  12  21
BRANCH   1  27
ATOM     27  N   UNL     1      -9.082  12.082  67.871  0.00  0.00    +0.299 N 
ATOM     28  C   UNL     1      -8.215  11.260  68.726  0.00  0.00    +0.109 C 
ATOM     29  C   UNL     1      -6.858  11.748  68.220  0.00  0.00    +0.067 C 
ATOM     30  C   UNL     1      -7.136  11.590  66.724  0.00  0.00    +0.067 C 
ATOM     31  C   UNL     1      -8.634  11.844  66.598  0.00  0.00    +0.109 C 
BRANCH  27  32
ATOM     32  C   UNL     1     -10.396  11.836  68.288  0.00  0.00    +0.136 C 
BRANCH  32  34
ATOM     33  C   UNL     1     -11.222   9.927  67.988  0.00  0.00    +0.001 C 
ATOM     34  C   UNL     1     -10.806  10.442  67.945  0.00  0.00    +0.034 C 
ENDBRANCH  32  34
ENDBRANCH  27  32
ENDBRANCH   1  27
BRANCH   2  35
ATOM     35  O   UNL     1     -10.411  13.732  66.767  0.00  0.00    -0.446 OA
BRANCH  35  36
ATOM     36  C   UNL     1     -11.698  13.754  66.296  0.00  0.00    +0.318 C 
ATOM     37  O   UNL     1     -12.625  14.112  67.048  0.00  0.00    -0.250 OA
ATOM     38  C   UNL     1     -12.101  12.894  65.139  0.00  0.00    +0.121 C 
ENDBRANCH  35  36
ENDBRANCH   2  35
TORSDOF 6
ENDMDL
MODEL 2
REMARK VINA RESULT:      -6.7      5.190      9.749
REMARK  Name = 
REMARK  6 active torsions:
REMARK  status: ('A' for Active; 'I' for Inactive)
REMARK    1  A    between atoms: C_2  and  C_3
REMARK    2  A    between atoms: C_3  and  N_4
REMARK    3  A    between atoms: N_4  and  C_5
REMARK    4  A    between atoms: C_15  and  N_16
REMARK    5  A    between atoms: C_30  and  O_31
REMARK    6  A    between atoms: O_31  and  C_32
REMARK                            x       y       z     vdW  Elec       q    Type
REMARK                         _______ _______ _______ _____ _____    ______ ____
ROOT
ATOM      1  C   UNL     1      -9.899  12.887  68.274  0.00  0.00    +0.099 C 
ATOM      2  C   UNL     1      -9.505  11.966  66.833  0.00  0.00    +0.217 C 
ATOM      3  C   UNL     1      -9.782  10.526  67.564  0.00  0.00    +0.043 C 
ATOM      4  C   UNL     1     -10.016  11.077  69.082  0.00  0.00    +0.009 C 
ATOM      5  C   UNL     1     -10.892   9.658  69.453  0.00  0.00    +0.000 C 
ATOM      6  C   UNL     1      -9.382   9.135  70.077  0.00  0.00    +0.000 C 
ATOM      7  C   UNL     1      -8.964   8.546  68.599  0.00  0.00    +0.000 C 
ATOM      8  C   UNL     1      -9.948   7.711  70.645  0.00  0.00    +0.001 C 
ATOM      9  C   UNL     1     -10.633   8.285  72.043  0.00  0.00    +0.003 C 
ATOM     10  C   UNL     1     -11.320   6.826  72.384  0.00  0.00    +0.034 C 
ATOM     11  C   UNL     1     -10.021   5.920  72.886  0.00  0.00    +0.166 C 
ATOM     12  C   UNL     1      -8.868   7.236  72.821  0.00  0.00    +0.088 C 
ATOM     13  O   UNL     1     -10.346   6.206  74.363  0.00  0.00    -0.222 OA
ATOM     14  C   UNL     1     -12.012   8.804  71.283  0.00  0.00    +0.000 C 
ATOM     15  C   UNL     1     -10.900   7.115  69.815  0.00  0.00    +0.000 C 
ATOM     16  C   UNL     1      -8.743   7.027  71.184  0.00  0.00    +0.019 C 
ATOM     17  C   UNL     1     -11.435  10.170  70.885  0.00  0.00    +0.000 C 
ATOM     18  C   UNL     1     -10.965   9.889  67.046  0.00  0.00    +0.004 C 
ATOM     19  C   UNL     1      -8.552   9.764  67.767  0.00  0.00    +0.004 C 
ATOM     20  C   UNL     1     -11.271  11.976  68.513  0.00  0.00    +0.059 C 
ENDROOT
BRANCH  12  21
ATOM     21  N   UNL     1      -7.662   6.274  73.133  0.00  0.00    -0.267 NA
ATOM     22  C   UNL     1      -6.648   6.939  72.312  0.00  0.00    +0.105 C 
ATOM     23  C   UNL     1      -6.605   8.417  72.689  0.00  0.00    +0.159 C 
ATOM     24  O   UNL     1      -5.887   8.465  73.886  0.00  0.00    -0.351 OA
ATOM     25  C   UNL     1      -5.948   7.271  74.588  0.00  0.00    +0.159 C 
ATOM     26  C   UNL     1      -7.314   6.657  74.502  0.00  0.00    +0.105 C 
ENDBRANCH  12  21
BRANCH   1  27
ATOM     27  N   UNL     1     -10.558  14.091  67.503  0.00  0.00    +0.299 N 
ATOM     28  C   UNL     1     -10.106  15.187  68.371  0.00  0.00    +0.109 C 
ATOM     29  C   UNL     1     -10.820  14.775  69.658  0.00  0.00    +0.067 C 
ATOM     30  C   UNL     1     -12.209  14.559  69.054  0.00  0.00    +0.067 C 
ATOM     31  C   UNL     1     -11.923  14.094  67.630  0.00  0.00    +0.109 C 
BRANCH  27  32
ATOM     32  C   UNL     1      -9.894  14.255  66.281  0.00  0.00    +0.136 C 
BRANCH  32  34
ATOM     33  C   UNL     1     -10.636  15.693  64.941  0.00  0.00    +0.001 C 
ATOM     34  C   UNL     1     -10.479  15.391  65.510  0.00  0.00    +0.034 C 
ENDBRANCH  32  34
ENDBRANCH  27  32
ENDBRANCH   1  27
BRANCH   2  35
ATOM     35  O   UNL     1     -10.957  12.085  66.269  0.00  0.00    -0.446 OA
BRANCH  35  36
ATOM     36  C   UNL     1     -11.075  11.826  64.928  0.00  0.00    +0.318 C 
ATOM     37  O   UNL     1     -10.053  11.620  64.246  0.00  0.00    -0.250 OA
ATOM     38  C   UNL     1     -12.277  12.287  64.165  0.00  0.00    +0.121 C 
ENDBRANCH  35  36
ENDBRANCH   2  35
TORSDOF 6
ENDMDL
MODEL 3
REMARK VINA RESULT:      -6.2      5.331      9.079
REMARK  Name = 
REMARK  6 active torsions:
REMARK  status: ('A' for Active; 'I' for Inactive)
REMARK    1  A    between atoms: C_2  and  C_3
REMARK    2  A    between atoms: C_3  and  N_4
REMARK    3  A    between atoms: N_4  and  C_5
REMARK    4  A    between atoms: C_15  and  N_16
REMARK    5  A    between atoms: C_30  and  O_31
REMARK    6  A    between atoms: O_31  and  C_32
REMARK                            x       y       z     vdW  Elec       q    Type
REMARK                         _______ _______ _______ _____ _____    ______ ____
ROOT
ATOM      1  C   UNL     1      -9.149   8.033  73.434  0.00  0.00    +0.099 C 
ATOM      2  C   UNL     1     -10.662   7.177  73.201  0.00  0.00    +0.217 C 
ATOM      3  C   UNL     1     -10.900   7.811  71.708  0.00  0.00    +0.043 C 
ATOM      4  C   UNL     1      -9.654   8.866  71.704  0.00  0.00    +0.009 C 
ATOM      5  C   UNL     1      -9.676   8.870  69.996  0.00  0.00    +0.000 C 
ATOM      6  C   UNL     1     -10.625  10.281  70.215  0.00  0.00    +0.000 C 
ATOM      7  C   UNL     1     -11.991   9.366  70.276  0.00  0.00    +0.000 C 
ATOM      8  C   UNL     1     -10.750  10.620  68.621  0.00  0.00    +0.001 C 
ATOM      9  C   UNL     1      -9.260  11.324  68.426  0.00  0.00    +0.003 C 
ATOM     10  C   UNL     1      -9.443  11.413  66.791  0.00  0.00    +0.034 C 
ATOM     11  C   UNL     1     -10.530  12.657  66.612  0.00  0.00    +0.166 C 
ATOM     12  C   UNL     1     -10.587  13.070  68.313  0.00  0.00    +0.088 C 
ATOM     13  O   UNL     1      -9.394  13.661  66.351  0.00  0.00    -0.222 OA
ATOM     14  C   UNL     1      -8.469   9.874  68.301  0.00  0.00    +0.000 C 
ATOM     15  C   UNL     1     -10.889   9.486  67.817  0.00  0.00    +0.000 C 
ATOM     16  C   UNL     1     -11.633  11.814  68.569  0.00  0.00    +0.019 C 
ATOM     17  C   UNL     1      -8.295   9.689  69.816  0.00  0.00    +0.000 C 
ATOM     18  C   UNL     1     -10.749   6.813  70.681  0.00  0.00    +0.004 C 
ATOM     19  C   UNL     1     -12.017   8.751  71.679  0.00  0.00    +0.004 C 
ATOM     20  C   UNL     1      -8.635   7.591  71.914  0.00  0.00    +0.059 C 
ENDROOT
BRANCH  12  21
ATOM     21  N   UNL     1     -11.743  14.113  68.081  0.00  0.00    -0.267 NA
ATOM     22  C   UNL     1     -12.336  14.066  69.420  0.00  0.00    +0.105 C 
ATOM     23  C   UNL     1     -11.237  14.311  70.451  0.00  0.00    +0.159 C 
ATOM     24  O   UNL     1     -11.021  15.691  70.429  0.00  0.00    -0.351 OA
ATOM     25  C   UNL     1     -11.382  16.263  69.218  0.00  0.00    +0.159 C 
ATOM     26  C   UNL     1     -11.011  15.380  68.064  0.00  0.00    +0.105 C 
ENDBRANCH  12  21
BRANCH   1  27
ATOM     27  N   UNL     1      -8.452   6.882  74.251  0.00  0.00    +0.299 N 
ATOM     28  C   UNL     1      -7.667   7.708  75.177  0.00  0.00    +0.109 C 
ATOM     29  C   UNL     1      -6.769   8.410  74.159  0.00  0.00    +0.067 C 
ATOM     30  C   UNL     1      -6.324   7.163  73.393  0.00  0.00    +0.067 C 
ATOM     31  C   UNL     1      -7.515   6.217  73.504  0.00  0.00    +0.109 C 
BRANCH  27  32
ATOM     32  C   UNL     1      -9.424   6.236  75.026  0.00  0.00    +0.136 C 
BRANCH  32  34
ATOM     33  C   UNL     1      -8.870   4.558  76.163  0.00  0.00    +0.001 C 
ATOM     34  C   UNL     1      -8.821   5.109  75.798  0.00  0.00    +0.034 C 
ENDBRANCH  32  34
ENDBRANCH  27  32
ENDBRANCH   1  27
BRANCH   2  35
ATOM     35  O   UNL     1      -9.943   5.897  72.665  0.00  0.00    -0.446 OA
BRANCH  35  36
ATOM     36  C   UNL     1     -10.718   4.767  72.650  0.00  0.00    +0.318 C 
ATOM     37  O   UNL     1     -11.811   4.758  73.248  0.00  0.00    -0.250 OA
ATOM     38  C   UNL     1     -10.102   3.424  72.412  0.00  0.00    +0.121 C 
ENDBRANCH  35  36
ENDBRANCH   2  35
TORSDOF 6
ENDMDL
MODEL 4
REMARK VINA RESULT:      -6.1      2.275      4.240
REMARK  Name = 
REMARK  6 active torsions:
REMARK  status: ('A' for Active; 'I' for Inactive)
REMARK    1  A    between atoms: C_2  and  C_3
REMARK    2  A    between atoms: C_3  and  N_4
REMARK    3  A    between atoms: N_4  and  C_5
REMARK    4  A    between atoms: C_15  and  N_16
REMARK    5  A    between atoms: C_30  and  O_31
REMARK    6  A    between atoms: O_31  and  C_32
REMARK                            x       y       z     vdW  Elec       q    Type
REMARK                         _______ _______ _______ _____ _____    ______ ____
ROOT
ATOM      1  C   UNL     1      -9.982  13.696  65.562  0.00  0.00    +0.099 C 
ATOM      2  C   UNL     1      -9.181  12.785  66.829  0.00  0.00    +0.217 C 
ATOM      3  C   UNL     1      -8.527  14.125  67.508  0.00  0.00    +0.043 C 
ATOM      4  C   UNL     1      -8.979  15.206  66.371  0.00  0.00    +0.009 C 
ATOM      5  C   UNL     1      -8.835  16.461  67.521  0.00  0.00    +0.000 C 
ATOM      6  C   UNL     1      -7.283  16.652  66.817  0.00  0.00    +0.000 C 
ATOM      7  C   UNL     1      -6.659  15.553  67.870  0.00  0.00    +0.000 C 
ATOM      8  C   UNL     1      -6.879  17.957  67.712  0.00  0.00    +0.001 C 
ATOM      9  C   UNL     1      -7.713  19.095  66.839  0.00  0.00    +0.003 C 
ATOM     10  C   UNL     1      -7.395  20.274  67.944  0.00  0.00    +0.034 C 
ATOM     11  C   UNL     1      -5.792  20.613  67.665  0.00  0.00    +0.166 C 
ATOM     12  C   UNL     1      -5.639  19.551  66.282  0.00  0.00    +0.088 C 
ATOM     13  O   UNL     1      -6.162  21.811  66.774  0.00  0.00    -0.222 OA
ATOM     14  C   UNL     1      -9.162  18.747  67.563  0.00  0.00    +0.000 C 
ATOM     15  C   UNL     1      -7.331  17.893  69.032  0.00  0.00    +0.000 C 
ATOM     16  C   UNL     1      -5.481  18.261  67.306  0.00  0.00    +0.019 C 
ATOM     17  C   UNL     1      -9.517  17.602  66.603  0.00  0.00    +0.000 C 
ATOM     18  C   UNL     1      -9.129  14.418  68.783  0.00  0.00    +0.004 C 
ATOM     19  C   UNL     1      -7.077  14.180  67.337  0.00  0.00    +0.004 C 
ATOM     20  C   UNL     1     -10.544  14.799  66.673  0.00  0.00    +0.059 C 
ENDROOT
BRANCH  12  21
ATOM     21  N   UNL     1      -4.086  19.794  66.193  0.00  0.00    -0.267 NA
ATOM     22  C   UNL     1      -3.699  18.476  65.685  0.00  0.00    +0.105 C 
ATOM     23  C   UNL     1      -4.528  18.167  64.441  0.00  0.00    +0.159 C 
ATOM     24  O   UNL     1      -3.934  18.906  63.416  0.00  0.00    -0.351 OA
ATOM     25  C   UNL     1      -3.245  20.012  63.893  0.00  0.00    +0.159 C 
ATOM     26  C   UNL     1      -3.980  20.667  65.024  0.00  0.00    +0.105 C 
ENDBRANCH  12  21
BRANCH   1  27
ATOM     27  N   UNL     1     -11.255  12.772  65.497  0.00  0.00    +0.299 N 
ATOM     28  C   UNL     1     -11.615  12.983  64.089  0.00  0.00    +0.109 C 
ATOM     29  C   UNL     1     -11.908  14.482  64.146  0.00  0.00    +0.067 C 
ATOM     30  C   UNL     1     -12.832  14.458  65.366  0.00  0.00    +0.067 C 
ATOM     31  C   UNL     1     -12.306  13.297  66.203  0.00  0.00    +0.109 C 
BRANCH  27  32
ATOM     32  C   UNL     1     -10.842  11.438  65.603  0.00  0.00    +0.136 C 
BRANCH  32  34
ATOM     33  C   UNL     1     -10.038  10.482  63.912  0.00  0.00    +0.001 C 
ATOM     34  C   UNL     1     -10.351  10.931  64.287  0.00  0.00    +0.034 C 
ENDBRANCH  32  34
ENDBRANCH  27  32
ENDBRANCH   1  27
BRANCH   2  35
ATOM     35  O   UNL     1     -10.447  12.803  67.746  0.00  0.00    -0.446 OA
BRANCH  35  36
ATOM     36  C   UNL     1     -10.448  11.860  68.740  0.00  0.00    +0.318 C 
ATOM     37  O   UNL     1      -9.610  10.938  68.720  0.00  0.00    -0.250 OA
ATOM     38  C   UNL     1     -11.691  11.585  69.528  0.00  0.00    +0.121 C 
ENDBRANCH  35  36
ENDBRANCH   2  35
TORSDOF 6
ENDMDL
MODEL 5
REMARK VINA RESULT:      -6.0      4.639      9.544
REMARK  Name = 
REMARK  6 active torsions:
REMARK  status: ('A' for Active; 'I' for Inactive)
REMARK    1  A    between atoms: C_2  and  C_3
REMARK    2  A    between atoms: C_3  and  N_4
REMARK    3  A    between atoms: N_4  and  C_5
REMARK    4  A    between atoms: C_15  and  N_16
REMARK    5  A    between atoms: C_30  and  O_31
REMARK    6  A    between atoms: O_31  and  C_32
REMARK                            x       y       z     vdW  Elec       q    Type
REMARK                         _______ _______ _______ _____ _____    ______ ____
ROOT
ATOM      1  C   UNL     1      -9.905  13.777  68.525  0.00  0.00    +0.099 C 
ATOM      2  C   UNL     1      -9.542  13.128  66.936  0.00  0.00    +0.217 C 
ATOM      3  C   UNL     1      -9.863  11.586  67.388  0.00  0.00    +0.043 C 
ATOM      4  C   UNL     1     -10.077  11.853  68.984  0.00  0.00    +0.009 C 
ATOM      5  C   UNL     1     -10.996  10.417  69.092  0.00  0.00    +0.000 C 
ATOM      6  C   UNL     1      -9.503   9.741  69.597  0.00  0.00    +0.000 C 
ATOM      7  C   UNL     1      -9.105   9.425  68.033  0.00  0.00    +0.000 C 
ATOM      8  C   UNL     1     -10.112   8.254  69.895  0.00  0.00    +0.001 C 
ATOM      9  C   UNL     1     -10.778   8.579  71.380  0.00  0.00    +0.003 C 
ATOM     10  C   UNL     1     -11.509   7.104  71.449  0.00  0.00    +0.034 C 
ATOM     11  C   UNL     1     -10.238   6.082  71.765  0.00  0.00    +0.166 C 
ATOM     12  C   UNL     1      -9.045   7.351  71.937  0.00  0.00    +0.088 C 
ATOM     13  O   UNL     1     -10.552   6.098  73.271  0.00  0.00    -0.222 OA
ATOM     14  C   UNL     1     -12.140   9.272  70.740  0.00  0.00    +0.000 C 
ATOM     15  C   UNL     1     -11.084   7.853  68.975  0.00  0.00    +0.000 C 
ATOM     16  C   UNL     1      -8.928   7.446  70.289  0.00  0.00    +0.019 C 
ATOM     17  C   UNL     1     -11.522  10.670  70.598  0.00  0.00    +0.000 C 
ATOM     18  C   UNL     1     -11.065  11.093  66.770  0.00  0.00    +0.004 C 
ATOM     19  C   UNL     1      -8.657  10.763  67.437  0.00  0.00    +0.004 C 
ATOM     20  C   UNL     1     -11.304  12.880  68.600  0.00  0.00    +0.059 C 
ENDROOT
BRANCH  12  21
ATOM     21  N   UNL     1      -7.869   6.312  72.057  0.00  0.00    -0.267 NA
ATOM     22  C   UNL     1      -6.826   7.100  71.397  0.00  0.00    +0.105 C 
ATOM     23  C   UNL     1      -6.750   8.470  72.067  0.00  0.00    +0.159 C 
ATOM     24  O   UNL     1      -6.048   8.253  73.255  0.00  0.00    -0.351 OA
ATOM     25  C   UNL     1      -6.150   6.942  73.698  0.00  0.00    +0.159 C 
ATOM     26  C   UNL     1      -7.530   6.398  73.478  0.00  0.00    +0.105 C 
ENDBRANCH  12  21
BRANCH   1  27
ATOM     27  N   UNL     1     -10.528  15.123  67.996  0.00  0.00    +0.299 N 
ATOM     28  C   UNL     1     -10.026  16.027  69.039  0.00  0.00    +0.109 C 
ATOM     29  C   UNL     1     -10.740  15.414  70.243  0.00  0.00    +0.067 C 
ATOM     30  C   UNL     1     -12.143  15.358  69.634  0.00  0.00    +0.067 C 
ATOM     31  C   UNL     1     -11.890  15.150  68.145  0.00  0.00    +0.109 C 
BRANCH  27  32
ATOM     32  C   UNL     1      -9.871  15.482  66.813  0.00  0.00    +0.136 C 
BRANCH  32  34
ATOM     33  C   UNL     1     -10.267  17.358  65.953  0.00  0.00    +0.001 C 
ATOM     34  C   UNL     1     -10.255  16.862  66.393  0.00  0.00    +0.034 C 
ENDBRANCH  32  34
ENDBRANCH  27  32
ENDBRANCH   1  27
BRANCH   2  35
ATOM     35  O   UNL     1     -10.991  13.394  66.413  0.00  0.00    -0.446 OA
BRANCH  35  36
ATOM     36  C   UNL     1     -11.118  13.391  65.049  0.00  0.00    +0.318 C 
ATOM     37  O   UNL     1     -10.107  13.255  64.333  0.00  0.00    -0.250 OA
ATOM     38  C   UNL     1     -12.290  14.051  64.391  0.00  0.00    +0.121 C 
ENDBRANCH  35  36
ENDBRANCH   2  35
TORSDOF 6
ENDMDL
MODEL 6
REMARK VINA RESULT:      -5.9      2.122      8.764
REMARK  Name = 
REMARK  6 active torsions:
REMARK  status: ('A' for Active; 'I' for Inactive)
REMARK    1  A    between atoms: C_2  and  C_3
REMARK    2  A    between atoms: C_3  and  N_4
REMARK    3  A    between atoms: N_4  and  C_5
REMARK    4  A    between atoms: C_15  and  N_16
REMARK    5  A    between atoms: C_30  and  O_31
REMARK    6  A    between atoms: O_31  and  C_32
REMARK                            x       y       z     vdW  Elec       q    Type
REMARK                         _______ _______ _______ _____ _____    ______ ____
ROOT
ATOM      1  C   UNL     1      -5.796  18.173  65.560  0.00  0.00    +0.099 C 
ATOM      2  C   UNL     1      -6.820  19.389  66.301  0.00  0.00    +0.217 C 
ATOM      3  C   UNL     1      -7.736  18.277  67.082  0.00  0.00    +0.043 C 
ATOM      4  C   UNL     1      -7.096  16.935  66.408  0.00  0.00    +0.009 C 
ATOM      5  C   UNL     1      -7.634  16.018  67.745  0.00  0.00    +0.000 C 
ATOM      6  C   UNL     1      -8.961  15.674  66.714  0.00  0.00    +0.000 C 
ATOM      7  C   UNL     1      -9.745  17.014  67.258  0.00  0.00    +0.000 C 
ATOM      8  C   UNL     1      -9.690  14.647  67.755  0.00  0.00    +0.001 C 
ATOM      9  C   UNL     1      -8.754  13.313  67.444  0.00  0.00    +0.003 C 
ATOM     10  C   UNL     1      -9.444  12.460  68.674  0.00  0.00    +0.034 C 
ATOM     11  C   UNL     1     -10.941  12.083  68.062  0.00  0.00    +0.166 C 
ATOM     12  C   UNL     1     -10.643  12.757  66.473  0.00  0.00    +0.088 C 
ATOM     13  O   UNL     1     -10.452  10.692  67.623  0.00  0.00    -0.222 OA
ATOM     14  C   UNL     1      -7.519  13.815  68.428  0.00  0.00    +0.000 C 
ATOM     15  C   UNL     1      -9.592  15.042  69.091  0.00  0.00    +0.000 C 
ATOM     16  C   UNL     1     -10.954  14.268  67.071  0.00  0.00    +0.019 C 
ATOM     17  C   UNL     1      -6.834  14.671  67.353  0.00  0.00    +0.000 C 
ATOM     18  C   UNL     1      -7.512  18.312  68.504  0.00  0.00    +0.004 C 
ATOM     19  C   UNL     1      -9.091  18.199  66.542  0.00  0.00    +0.004 C 
ATOM     20  C   UNL     1      -5.634  17.384  67.016  0.00  0.00    +0.059 C 
ENDROOT
BRANCH  12  21
ATOM     21  N   UNL     1     -12.135  12.521  66.028  0.00  0.00    -0.267 NA
ATOM     22  C   UNL     1     -12.339  13.781  65.311  0.00  0.00    +0.105 C 
ATOM     23  C   UNL     1     -11.220  13.950  64.287  0.00  0.00    +0.159 C 
ATOM     24  O   UNL     1     -11.570  13.112  63.226  0.00  0.00    -0.351 OA
ATOM     25  C   UNL     1     -12.393  12.069  63.625  0.00  0.00    +0.159 C 
ATOM     26  C   UNL     1     -11.981  11.530  64.962  0.00  0.00    +0.105 C 
ENDBRANCH  12  21
BRANCH   1  27
ATOM     27  N   UNL     1      -4.478  19.033  65.621  0.00  0.00    +0.299 N 
ATOM     28  C   UNL     1      -3.843  18.558  64.385  0.00  0.00    +0.109 C 
ATOM     29  C   UNL     1      -3.671  17.087  64.762  0.00  0.00    +0.067 C 
ATOM     30  C   UNL     1      -3.028  17.307  66.133  0.00  0.00    +0.067 C 
ATOM     31  C   UNL     1      -3.639  18.615  66.621  0.00  0.00    +0.109 C 
BRANCH  27  32
ATOM     32  C   UNL     1      -4.813  20.375  65.403  0.00  0.00    +0.136 C 
BRANCH  32  34
ATOM     33  C   UNL     1      -3.310  21.829  65.616  0.00  0.00    +0.001 C 
ATOM     34  C   UNL     1      -3.603  21.245  65.506  0.00  0.00    +0.034 C 
ENDBRANCH  32  34
ENDBRANCH  27  32
ENDBRANCH   1  27
BRANCH   2  35
ATOM     35  O   UNL     1      -5.842  19.590  67.503  0.00  0.00    -0.446 OA
BRANCH  35  36
ATOM     36  C   UNL     1      -6.040  20.742  68.219  0.00  0.00    +0.318 C 
ATOM     37  O   UNL     1      -6.528  21.742  67.658  0.00  0.00    -0.250 OA
ATOM     38  C   UNL     1      -5.240  21.020  69.453  0.00  0.00    +0.121 C 
ENDBRANCH  35  36
ENDBRANCH   2  35
TORSDOF 6
ENDMDL
MODEL 7
REMARK VINA RESULT:      -5.9      3.337      9.066
REMARK  Name = 
REMARK  6 active torsions:
REMARK  status: ('A' for Active; 'I' for Inactive)
REMARK    1  A    between atoms: C_2  and  C_3
REMARK    2  A    between atoms: C_3  and  N_4
REMARK    3  A    between atoms: N_4  and  C_5
REMARK    4  A    between atoms: C_15  and  N_16
REMARK    5  A    between atoms: C_30  and  O_31
REMARK    6  A    between atoms: O_31  and  C_32
REMARK                            x       y       z     vdW  Elec       q    Type
REMARK                         _______ _______ _______ _____ _____    ______ ____
ROOT
ATOM      1  C   UNL     1      -8.777  15.759  67.032  0.00  0.00    +0.099 C 
ATOM      2  C   UNL     1     -10.488  15.534  67.347  0.00  0.00    +0.217 C 
ATOM      3  C   UNL     1     -10.388  13.901  67.246  0.00  0.00    +0.043 C 
ATOM      4  C   UNL     1      -8.836  13.795  66.751  0.00  0.00    +0.009 C 
ATOM      5  C   UNL     1      -8.765  12.196  67.347  0.00  0.00    +0.000 C 
ATOM      6  C   UNL     1      -9.115  11.790  65.719  0.00  0.00    +0.000 C 
ATOM      7  C   UNL     1     -10.727  11.884  66.031  0.00  0.00    +0.000 C 
ATOM      8  C   UNL     1      -9.018  10.175  65.948  0.00  0.00    +0.001 C 
ATOM      9  C   UNL     1      -7.364  10.044  65.910  0.00  0.00    +0.003 C 
ATOM     10  C   UNL     1      -7.413   8.457  66.352  0.00  0.00    +0.034 C 
ATOM     11  C   UNL     1      -7.934   7.707  64.964  0.00  0.00    +0.166 C 
ATOM     12  C   UNL     1      -7.918   9.155  63.980  0.00  0.00    +0.088 C 
ATOM     13  O   UNL     1      -6.489   7.357  64.567  0.00  0.00    -0.222 OA
ATOM     14  C   UNL     1      -7.180  10.521  67.485  0.00  0.00    +0.000 C 
ATOM     15  C   UNL     1      -9.537   9.752  67.174  0.00  0.00    +0.000 C 
ATOM     16  C   UNL     1      -9.376   9.595  64.627  0.00  0.00    +0.019 C 
ATOM     17  C   UNL     1      -7.169  12.023  67.167  0.00  0.00    +0.000 C 
ATOM     18  C   UNL     1     -10.575  13.280  68.531  0.00  0.00    +0.004 C 
ATOM     19  C   UNL     1     -11.060  13.379  66.059  0.00  0.00    +0.004 C 
ATOM     20  C   UNL     1      -8.391  14.572  68.132  0.00  0.00    +0.059 C 
ENDROOT
BRANCH  12  21
ATOM     21  N   UNL     1      -8.576   8.406  62.761  0.00  0.00    -0.267 NA
ATOM     22  C   UNL     1      -9.301   9.541  62.187  0.00  0.00    +0.105 C 
ATOM     23  C   UNL     1      -8.322  10.693  61.978  0.00  0.00    +0.159 C 
ATOM     24  O   UNL     1      -7.615  10.362  60.820  0.00  0.00    -0.351 OA
ATOM     25  C   UNL     1      -7.594   8.996  60.586  0.00  0.00    +0.159 C 
ATOM     26  C   UNL     1      -7.435   8.225  61.863  0.00  0.00    +0.105 C 
ENDBRANCH  12  21
BRANCH   1  27
ATOM     27  N   UNL     1      -8.615  17.006  67.980  0.00  0.00    +0.299 N 
ATOM     28  C   UNL     1      -7.668  17.783  67.169  0.00  0.00    +0.109 C 
ATOM     29  C   UNL     1      -6.494  16.805  67.182  0.00  0.00    +0.067 C 
ATOM     30  C   UNL     1      -6.463  16.553  68.691  0.00  0.00    +0.067 C 
ATOM     31  C   UNL     1      -7.919  16.696  69.119  0.00  0.00    +0.109 C 
BRANCH  27  32
ATOM     32  C   UNL     1      -9.818  17.724  67.979  0.00  0.00    +0.136 C 
BRANCH  32  34
ATOM     33  C   UNL     1      -9.868  19.643  68.834  0.00  0.00    +0.001 C 
ATOM     34  C   UNL     1      -9.637  19.057  68.626  0.00  0.00    +0.034 C 
ENDBRANCH  32  34
ENDBRANCH  27  32
ENDBRANCH   1  27
BRANCH   2  35
ATOM     35  O   UNL     1     -10.283  15.561  68.896  0.00  0.00    -0.446 OA
BRANCH  35  36
ATOM     36  C   UNL     1     -11.435  15.710  69.625  0.00  0.00    +0.318 C 
ATOM     37  O   UNL     1     -12.449  16.194  69.087  0.00  0.00    -0.250 OA
ATOM     38  C   UNL     1     -11.384  15.813  71.117  0.00  0.00    +0.121 C 
ENDBRANCH  35  36
ENDBRANCH   2  35
TORSDOF 6
ENDMDL
MODEL 8
REMARK VINA RESULT:      -5.9      2.365      3.567
REMARK  Name = 
REMARK  6 active torsions:
REMARK  status: ('A' for Active; 'I' for Inactive)
REMARK    1  A    between atoms: C_2  and  C_3
REMARK    2  A    between atoms: C_3  and  N_4
REMARK    3  A    between atoms: N_4  and  C_5
REMARK    4  A    between atoms: C_15  and  N_16
REMARK    5  A    between atoms: C_30  and  O_31
REMARK    6  A    between atoms: O_31  and  C_32
REMARK                            x       y       z     vdW  Elec       q    Type
REMARK                         _______ _______ _______ _____ _____    ______ ____
ROOT
ATOM      1  C   UNL     1      -9.772  13.024  66.266  0.00  0.00    +0.099 C 
ATOM      2  C   UNL     1      -9.685  12.650  67.977  0.00  0.00    +0.217 C 
ATOM      3  C   UNL     1      -9.362  14.201  68.396  0.00  0.00    +0.043 C 
ATOM      4  C   UNL     1      -9.192  14.816  66.893  0.00  0.00    +0.009 C 
ATOM      5  C   UNL     1      -9.542  16.374  67.501  0.00  0.00    +0.000 C 
ATOM      6  C   UNL     1      -7.834  16.515  67.548  0.00  0.00    +0.000 C 
ATOM      7  C   UNL     1      -7.812  15.878  69.064  0.00  0.00    +0.000 C 
ATOM      8  C   UNL     1      -7.833  18.072  68.046  0.00  0.00    +0.001 C 
ATOM      9  C   UNL     1      -8.121  18.777  66.572  0.00  0.00    +0.003 C 
ATOM     10  C   UNL     1      -8.299  20.271  67.246  0.00  0.00    +0.034 C 
ATOM     11  C   UNL     1      -6.736  20.690  67.622  0.00  0.00    +0.166 C 
ATOM     12  C   UNL     1      -6.007  19.277  66.888  0.00  0.00    +0.088 C 
ATOM     13  O   UNL     1      -6.602  21.501  66.321  0.00  0.00    -0.222 OA
ATOM     14  C   UNL     1      -9.754  18.506  66.639  0.00  0.00    +0.000 C 
ATOM     15  C   UNL     1      -8.845  18.368  68.962  0.00  0.00    +0.000 C 
ATOM     16  C   UNL     1      -6.394  18.396  68.234  0.00  0.00    +0.019 C 
ATOM     17  C   UNL     1      -9.675  17.087  66.057  0.00  0.00    +0.000 C 
ATOM     18  C   UNL     1     -10.470  14.803  69.090  0.00  0.00    +0.004 C 
ATOM     19  C   UNL     1      -7.995  14.368  68.885  0.00  0.00    +0.004 C 
ATOM     20  C   UNL     1     -10.736  14.344  66.576  0.00  0.00    +0.059 C 
ENDROOT
BRANCH  12  21
ATOM     21  N   UNL     1      -4.579  19.659  67.431  0.00  0.00    -0.267 NA
ATOM     22  C   UNL     1      -4.073  18.303  67.655  0.00  0.00    +0.105 C 
ATOM     23  C   UNL     1      -4.247  17.497  66.370  0.00  0.00    +0.159 C 
ATOM     24  O   UNL     1      -3.205  17.912  65.538  0.00  0.00    -0.351 OA
ATOM     25  C   UNL     1      -2.757  19.188  65.848  0.00  0.00    +0.159 C 
ATOM     26  C   UNL     1      -3.896  20.093  66.212  0.00  0.00    +0.105 C 
ENDBRANCH  12  21
BRANCH   1  27
ATOM     27  N   UNL     1     -10.910  11.984  65.946  0.00  0.00    +0.299 N 
ATOM     28  C   UNL     1     -10.459  11.562  64.613  0.00  0.00    +0.109 C 
ATOM     29  C   UNL     1     -10.587  12.901  63.888  0.00  0.00    +0.067 C 
ATOM     30  C   UNL     1     -12.008  13.238  64.344  0.00  0.00    +0.067 C 
ATOM     31  C   UNL     1     -12.116  12.596  65.722  0.00  0.00    +0.109 C 
BRANCH  27  32
ATOM     32  C   UNL     1     -10.748  10.875  66.786  0.00  0.00    +0.136 C 
BRANCH  32  34
ATOM     33  C   UNL     1      -9.876   9.125  66.016  0.00  0.00    +0.001 C 
ATOM     34  C   UNL     1     -10.145   9.731  66.041  0.00  0.00    +0.034 C 
ENDBRANCH  32  34
ENDBRANCH  27  32
ENDBRANCH   1  27
BRANCH   2  35
ATOM     35  O   UNL     1     -11.229  12.804  68.167  0.00  0.00    -0.446 OA
BRANCH  35  36
ATOM     36  C   UNL     1     -11.731  12.205  69.293  0.00  0.00    +0.318 C 
ATOM     37  O   UNL     1     -12.407  12.872  70.099  0.00  0.00    -0.250 OA
ATOM     38  C   UNL     1     -11.089  10.974  69.852  0.00  0.00    +0.121 C 
ENDBRANCH  35  36
ENDBRANCH   2  35
TORSDOF 6
ENDMDL
MODEL 9
REMARK VINA RESULT:      -5.7      4.496      8.036
REMARK  Name = 
REMARK  6 active torsions:
REMARK  status: ('A' for Active; 'I' for Inactive)
REMARK    1  A    between atoms: C_2  and  C_3
REMARK    2  A    between atoms: C_3  and  N_4
REMARK    3  A    between atoms: N_4  and  C_5
REMARK    4  A    between atoms: C_15  and  N_16
REMARK    5  A    between atoms: C_30  and  O_31
REMARK    6  A    between atoms: O_31  and  C_32
REMARK                            x       y       z     vdW  Elec       q    Type
REMARK                         _______ _______ _______ _____ _____    ______ ____
ROOT
ATOM      1  C   UNL     1      -8.195   8.629  71.798  0.00  0.00    +0.099 C 
ATOM      2  C   UNL     1      -9.802   7.966  72.034  0.00  0.00    +0.217 C 
ATOM      3  C   UNL     1     -10.392   8.662  70.672  0.00  0.00    +0.043 C 
ATOM      4  C   UNL     1      -9.084   9.560  70.287  0.00  0.00    +0.009 C 
ATOM      5  C   UNL     1      -9.610   9.611  68.662  0.00  0.00    +0.000 C 
ATOM      6  C   UNL     1     -10.272  11.119  69.137  0.00  0.00    +0.000 C 
ATOM      7  C   UNL     1     -11.659  10.373  69.611  0.00  0.00    +0.000 C 
ATOM      8  C   UNL     1     -10.821  11.511  67.648  0.00  0.00    +0.001 C 
ATOM      9  C   UNL     1      -9.381  12.037  67.012  0.00  0.00    +0.003 C 
ATOM     10  C   UNL     1     -10.027  12.189  65.504  0.00  0.00    +0.034 C 
ATOM     11  C   UNL     1     -10.958  13.558  65.642  0.00  0.00    +0.166 C 
ATOM     12  C   UNL     1     -10.459  13.931  67.278  0.00  0.00    +0.088 C 
ATOM     13  O   UNL     1      -9.837  14.426  65.044  0.00  0.00    -0.222 OA
ATOM     14  C   UNL     1      -8.845  10.506  66.675  0.00  0.00    +0.000 C 
ATOM     15  C   UNL     1     -11.329  10.423  66.935  0.00  0.00    +0.000 C 
ATOM     16  C   UNL     1     -11.528  12.804  67.847  0.00  0.00    +0.019 C 
ATOM     17  C   UNL     1      -8.255  10.263  68.071  0.00  0.00    +0.000 C 
ATOM     18  C   UNL     1     -10.675   7.680  69.657  0.00  0.00    +0.004 C 
ATOM     19  C   UNL     1     -11.345   9.729  70.965  0.00  0.00    +0.004 C 
ATOM     20  C   UNL     1      -8.211   8.168  70.199  0.00  0.00    +0.059 C 
ENDROOT
BRANCH  12  21
ATOM     21  N   UNL     1     -11.496  15.111  67.389  0.00  0.00    -0.267 NA
ATOM     22  C   UNL     1     -11.716  15.058  68.836  0.00  0.00    +0.105 C 
ATOM     23  C   UNL     1     -10.363  15.119  69.540  0.00  0.00    +0.159 C 
ATOM     24  O   UNL     1      -9.990  16.464  69.491  0.00  0.00    -0.351 OA
ATOM     25  C   UNL     1     -10.583  17.140  68.435  0.00  0.00    +0.159 C 
ATOM     26  C   UNL     1     -10.642  16.285  67.204  0.00  0.00    +0.105 C 
ENDBRANCH  12  21
BRANCH   1  27
ATOM     27  N   UNL     1      -7.434   7.382  72.385  0.00  0.00    +0.299 N 
ATOM     28  C   UNL     1      -6.322   8.085  73.038  0.00  0.00    +0.109 C 
ATOM     29  C   UNL     1      -5.681   8.709  71.799  0.00  0.00    +0.067 C 
ATOM     30  C   UNL     1      -5.626   7.441  70.944  0.00  0.00    +0.067 C 
ATOM     31  C   UNL     1      -6.838   6.636  71.401  0.00  0.00    +0.109 C 
BRANCH  27  32
ATOM     32  C   UNL     1      -8.210   6.830  73.412  0.00  0.00    +0.136 C 
BRANCH  32  34
ATOM     33  C   UNL     1      -7.516   5.110  74.400  0.00  0.00    +0.001 C 
ATOM     34  C   UNL     1      -7.521   5.654  74.021  0.00  0.00    +0.034 C 
ENDBRANCH  32  34
ENDBRANCH  27  32
ENDBRANCH   1  27
BRANCH   2  35
ATOM     35  O   UNL     1      -9.435   6.624  71.323  0.00  0.00    -0.446 OA
BRANCH  35  36
ATOM     36  C   UNL     1     -10.297   5.587  71.573  0.00  0.00    +0.318 C 
ATOM     37  O   UNL     1     -11.226   5.739  72.389  0.00  0.00    -0.250 OA
ATOM     38  C   UNL     1      -9.877   4.172  71.328  0.00  0.00    +0.121 C 
ENDBRANCH  35  36
ENDBRANCH   2  35
TORSDOF 6
ENDMDL
