MODEL 1
REMARK VINA RESULT:      -6.6      0.000      0.000
REMARK  Name = 
REMARK  6 active torsions:
REMARK  status: ('A' for Active; 'I' for Inactive)
REMARK    1  A    between atoms: C_2  and  C_18
REMARK    2  A    between atoms: N_3  and  CA_4
REMARK    3  A    between atoms: CA_4  and  C_5
REMARK    4  A    between atoms: CA_4  and  C_7
REMARK    5  A    between atoms: C_7  and  C_9
REMARK    6  A    between atoms: C_12  and  N_13
REMARK                            x       y       z     vdW  Elec       q    Type
REMARK                         _______ _______ _______ _____ _____    ______ ____
ROOT
ATOM      1  C   UNL     1     -10.368  14.353  68.129  0.00  0.00    +0.197 C 
ATOM      2  O   UNL     1     -11.077  12.994  67.962  0.00  0.00    -0.216 OA
ENDROOT
BRANCH   1   3
ATOM      3  C   UNL     1     -11.428  14.840  69.282  0.00  0.00    +0.010 A 
ATOM      4  C   UNL     1     -10.903  15.838  70.068  0.00  0.00    +0.005 A 
ATOM      5  C   UNL     1     -11.628  16.179  71.204  0.00  0.00    +0.075 A 
ATOM      6  C   UNL     1     -12.568  15.292  71.711  0.00  0.00    +0.290 A 
ATOM      7  C   UNL     1     -12.990  14.245  70.922  0.00  0.00    +0.075 A 
ATOM      8  C   UNL     1     -12.154  13.866  69.880  0.00  0.00    +0.005 A 
BRANCH   6   9
ATOM      9  N   UNL     1     -13.446  15.672  72.778  0.00  0.00    +0.081 N 
ATOM     10  O   UNL     1     -12.891  16.144  73.956  0.00  0.00    -0.576 OA
ATOM     11  O   UNL     1     -14.596  16.078  72.487  0.00  0.00    +0.041 OA
ENDBRANCH   6   9
ENDBRANCH   1   3
BRANCH   1  12
ATOM     12  CA  UNL     1     -11.310  15.093  66.841  0.00  0.00    +0.163 C 
BRANCH  12  15
ATOM     13  O   UNL     1     -12.628  14.048  64.724  0.00  0.00    -0.271 OA
ATOM     14  C   UNL     1     -11.685  13.704  64.737  0.00  0.00    +0.272 C 
ATOM     15  N   UNL     1     -10.791  14.089  65.741  0.00  0.00    -0.199 NA
BRANCH  14  16
ATOM     16  C   UNL     1     -11.217  12.608  63.826  0.00  0.00    +0.236 C 
ATOM     17 CL   UNL     1     -12.680  11.771  63.230  0.00  0.00    -0.087 Cl
ATOM     18 CL   UNL     1     -10.354  11.390  64.815  0.00  0.00    -0.087 Cl
ENDBRANCH  14  16
ENDBRANCH  12  15
BRANCH  12  19
ATOM     19  C   UNL     1     -10.119  16.189  66.520  0.00  0.00    +0.207 C 
ATOM     20  O   UNL     1     -10.492  16.788  65.338  0.00  0.00    -0.218 OA
ENDBRANCH  12  19
ENDBRANCH   1  12
TORSDOF 6
ENDMDL
MODEL 2
REMARK VINA RESULT:      -5.9      5.856      6.849
REMARK  Name = 
REMARK  6 active torsions:
REMARK  status: ('A' for Active; 'I' for Inactive)
REMARK    1  A    between atoms: C_2  and  C_18
REMARK    2  A    between atoms: N_3  and  CA_4
REMARK    3  A    between atoms: CA_4  and  C_5
REMARK    4  A    between atoms: CA_4  and  C_7
REMARK    5  A    between atoms: C_7  and  C_9
REMARK    6  A    between atoms: C_12  and  N_13
REMARK                            x       y       z     vdW  Elec       q    Type
REMARK                         _______ _______ _______ _____ _____    ______ ____
ROOT
ATOM      1  C   UNL     1      -7.559  18.064  67.724  0.00  0.00    +0.197 C 
ATOM      2  O   UNL     1      -7.331  16.697  68.400  0.00  0.00    -0.216 OA
ENDROOT
BRANCH   1   3
ATOM      3  C   UNL     1      -6.831  18.869  68.953  0.00  0.00    +0.010 A 
ATOM      4  C   UNL     1      -6.386  20.108  68.557  0.00  0.00    +0.005 A 
ATOM      5  C   UNL     1      -5.571  20.790  69.453  0.00  0.00    +0.075 A 
ATOM      6  C   UNL     1      -4.926  20.091  70.465  0.00  0.00    +0.290 A 
ATOM      7  C   UNL     1      -5.340  18.810  70.758  0.00  0.00    +0.075 A 
ATOM      8  C   UNL     1      -6.039  18.133  69.767  0.00  0.00    +0.005 A 
BRANCH   6   9
ATOM      9  N   UNL     1      -4.211  20.775  71.501  0.00  0.00    +0.081 N 
ATOM     10  O   UNL     1      -4.522  22.101  71.755  0.00  0.00    -0.576 OA
ATOM     11  O   UNL     1      -3.761  20.102  72.458  0.00  0.00    +0.041 OA
ENDBRANCH   6   9
ENDBRANCH   1   3
BRANCH   1  12
ATOM     12  CA  UNL     1      -9.153  18.245  68.446  0.00  0.00    +0.163 C 
BRANCH  12  15
ATOM     13  O   UNL     1     -11.281  16.709  69.096  0.00  0.00    -0.271 OA
ATOM     14  C   UNL     1     -10.880  16.382  68.236  0.00  0.00    +0.272 C 
ATOM     15  N   UNL     1      -9.757  17.005  67.682  0.00  0.00    -0.199 NA
BRANCH  14  16
ATOM     16  C   UNL     1     -11.306  15.099  67.586  0.00  0.00    +0.236 C 
ATOM     17 CL   UNL     1     -11.925  14.042  68.888  0.00  0.00    -0.087 Cl
ATOM     18 CL   UNL     1      -9.842  14.271  66.972  0.00  0.00    -0.087 Cl
ENDBRANCH  14  16
ENDBRANCH  12  15
BRANCH  12  19
ATOM     19  C   UNL     1      -9.628  19.304  67.273  0.00  0.00    +0.207 C 
ATOM     20  O   UNL     1     -10.901  19.687  67.631  0.00  0.00    -0.218 OA
ENDBRANCH  12  19
ENDBRANCH   1  12
TORSDOF 6
ENDMDL
MODEL 3
REMARK VINA RESULT:      -5.8      1.799      2.286
REMARK  Name = 
REMARK  6 active torsions:
REMARK  status: ('A' for Active; 'I' for Inactive)
REMARK    1  A    between atoms: C_2  and  C_18
REMARK    2  A    between atoms: N_3  and  CA_4
REMARK    3  A    between atoms: CA_4  and  C_5
REMARK    4  A    between atoms: CA_4  and  C_7
REMARK    5  A    between atoms: C_7  and  C_9
REMARK    6  A    between atoms: C_12  and  N_13
REMARK                            x       y       z     vdW  Elec       q    Type
REMARK                         _______ _______ _______ _____ _____    ______ ____
ROOT
ATOM      1  C   UNL     1     -10.419  14.015  67.543  0.00  0.00    +0.197 C 
ATOM      2  O   UNL     1      -9.741  12.812  68.230  0.00  0.00    -0.216 OA
ENDROOT
BRANCH   1   3
ATOM      3  C   UNL     1     -11.555  14.133  68.720  0.00  0.00    +0.010 A 
ATOM      4  C   UNL     1     -11.717  15.431  69.143  0.00  0.00    +0.005 A 
ATOM      5  C   UNL     1     -12.498  15.620  70.278  0.00  0.00    +0.075 A 
ATOM      6  C   UNL     1     -12.729  14.555  71.139  0.00  0.00    +0.290 A 
ATOM      7  C   UNL     1     -12.453  13.277  70.705  0.00  0.00    +0.075 A 
ATOM      8  C   UNL     1     -11.561  13.149  69.650  0.00  0.00    +0.005 A 
BRANCH   6   9
ATOM      9  N   UNL     1     -13.655  14.667  72.226  0.00  0.00    +0.081 N 
ATOM     10  O   UNL     1     -14.311  15.872  72.415  0.00  0.00    -0.576 OA
ATOM     11  O   UNL     1     -14.243  13.631  72.617  0.00  0.00    +0.041 OA
ENDBRANCH   6   9
ENDBRANCH   1   3
BRANCH   1  12
ATOM     12  CA  UNL     1     -11.439  12.979  66.554  0.00  0.00    +0.163 C 
BRANCH  12  15
ATOM     13  O   UNL     1     -10.897  10.568  65.457  0.00  0.00    -0.271 OA
ATOM     14  C   UNL     1     -10.213  11.237  65.154  0.00  0.00    +0.272 C 
ATOM     15  N   UNL     1     -10.264  12.566  65.587  0.00  0.00    -0.199 NA
BRANCH  14  16
ATOM     16  C   UNL     1      -8.981  10.841  64.395  0.00  0.00    +0.236 C 
ATOM     17 CL   UNL     1      -9.294  11.213  62.674  0.00  0.00    -0.087 Cl
ATOM     18 CL   UNL     1      -8.833   9.058  64.465  0.00  0.00    -0.087 Cl
ENDBRANCH  14  16
ENDBRANCH  12  15
BRANCH  12  19
ATOM     19  C   UNL     1     -11.894  14.242  65.596  0.00  0.00    +0.207 C 
ATOM     20  O   UNL     1     -13.208  13.991  65.271  0.00  0.00    -0.218 OA
ENDBRANCH  12  19
ENDBRANCH   1  12
TORSDOF 6
ENDMDL
MODEL 4
REMARK VINA RESULT:      -5.8      5.140      7.161
REMARK  Name = 
REMARK  6 active torsions:
REMARK  status: ('A' for Active; 'I' for Inactive)
REMARK    1  A    between atoms: C_2  and  C_18
REMARK    2  A    between atoms: N_3  and  CA_4
REMARK    3  A    between atoms: CA_4  and  C_5
REMARK    4  A    between atoms: CA_4  and  C_7
REMARK    5  A    between atoms: C_7  and  C_9
REMARK    6  A    between atoms: C_12  and  N_13
REMARK                            x       y       z     vdW  Elec       q    Type
REMARK                         _______ _______ _______ _____ _____    ______ ____
ROOT
ATOM      1  C   UNL     1      -8.679  16.668  68.003  0.00  0.00    +0.197 C 
ATOM      2  O   UNL     1      -7.592  16.259  66.989  0.00  0.00    -0.216 OA
ENDROOT
BRANCH   1   3
ATOM      3  C   UNL     1      -9.877  16.045  67.072  0.00  0.00    +0.010 A 
ATOM      4  C   UNL     1     -10.757  15.290  67.811  0.00  0.00    +0.005 A 
ATOM      5  C   UNL     1     -11.687  14.545  67.096  0.00  0.00    +0.075 A 
ATOM      6  C   UNL     1     -11.459  14.264  65.756  0.00  0.00    +0.290 A 
ATOM      7  C   UNL     1     -10.492  14.977  65.081  0.00  0.00    +0.075 A 
ATOM      8  C   UNL     1      -9.513  15.592  65.849  0.00  0.00    +0.005 A 
BRANCH   6   9
ATOM      9  N   UNL     1     -12.463  13.641  64.946  0.00  0.00    +0.081 N 
ATOM     10  O   UNL     1     -12.642  14.092  63.649  0.00  0.00    -0.576 OA
ATOM     11  O   UNL     1     -12.758  12.444  65.179  0.00  0.00    +0.041 OA
ENDBRANCH   6   9
ENDBRANCH   1   3
BRANCH   1  12
ATOM     12  CA  UNL     1      -8.853  18.267  67.293  0.00  0.00    +0.163 C 
BRANCH  12  15
ATOM     13  O   UNL     1      -7.467  20.559  66.927  0.00  0.00    -0.271 OA
ATOM     14  C   UNL     1      -7.169  20.117  67.778  0.00  0.00    +0.272 C 
ATOM     15  N   UNL     1      -7.729  18.906  68.196  0.00  0.00    -0.199 NA
BRANCH  14  16
ATOM     16  C   UNL     1      -5.978  20.593  68.557  0.00  0.00    +0.236 C 
ATOM     17 CL   UNL     1      -4.580  19.625  68.005  0.00  0.00    -0.087 Cl
ATOM     18 CL   UNL     1      -6.213  20.135  70.272  0.00  0.00    -0.087 Cl
ENDBRANCH  14  16
ENDBRANCH  12  15
BRANCH  12  19
ATOM     19  C   UNL     1     -10.050  18.672  68.355  0.00  0.00    +0.207 C 
ATOM     20  O   UNL     1     -10.976  19.361  67.605  0.00  0.00    -0.218 OA
ENDBRANCH  12  19
ENDBRANCH   1  12
TORSDOF 6
ENDMDL
MODEL 5
REMARK VINA RESULT:      -5.7      5.138      7.180
REMARK  Name = 
REMARK  6 active torsions:
REMARK  status: ('A' for Active; 'I' for Inactive)
REMARK    1  A    between atoms: C_2  and  C_18
REMARK    2  A    between atoms: N_3  and  CA_4
REMARK    3  A    between atoms: CA_4  and  C_5
REMARK    4  A    between atoms: CA_4  and  C_7
REMARK    5  A    between atoms: C_7  and  C_9
REMARK    6  A    between atoms: C_12  and  N_13
REMARK                            x       y       z     vdW  Elec       q    Type
REMARK                         _______ _______ _______ _____ _____    ______ ____
ROOT
ATOM      1  C   UNL     1      -9.723  17.831  67.142  0.00  0.00    +0.197 C 
ATOM      2  O   UNL     1     -10.437  17.858  68.508  0.00  0.00    -0.216 OA
ENDROOT
BRANCH   1   3
ATOM      3  C   UNL     1     -10.256  16.315  66.817  0.00  0.00    +0.010 A 
ATOM      4  C   UNL     1     -10.554  16.153  65.485  0.00  0.00    +0.005 A 
ATOM      5  C   UNL     1     -11.211  14.979  65.134  0.00  0.00    +0.075 A 
ATOM      6  C   UNL     1     -11.879  14.248  66.107  0.00  0.00    +0.290 A 
ATOM      7  C   UNL     1     -11.623  14.516  67.434  0.00  0.00    +0.075 A 
ATOM      8  C   UNL     1     -11.087  15.762  67.732  0.00  0.00    +0.005 A 
BRANCH   6   9
ATOM      9  N   UNL     1     -12.427  12.956  65.819  0.00  0.00    +0.081 N 
ATOM     10  O   UNL     1     -12.969  12.733  64.564  0.00  0.00    -0.576 OA
ATOM     11  O   UNL     1     -11.960  11.962  66.424  0.00  0.00    +0.041 OA
ENDBRANCH   6   9
ENDBRANCH   1   3
BRANCH   1  12
ATOM     12  CA  UNL     1      -8.225  17.237  67.846  0.00  0.00    +0.163 C 
BRANCH  12  15
ATOM     13  O   UNL     1      -6.228  17.878  69.553  0.00  0.00    -0.271 OA
ATOM     14  C   UNL     1      -6.710  18.712  69.270  0.00  0.00    +0.272 C 
ATOM     15  N   UNL     1      -7.795  18.654  68.389  0.00  0.00    -0.199 NA
BRANCH  14  16
ATOM     16  C   UNL     1      -6.454  20.044  69.909  0.00  0.00    +0.236 C 
ATOM     17 CL   UNL     1      -5.291  20.906  68.859  0.00  0.00    -0.087 Cl
ATOM     18 CL   UNL     1      -5.576  19.767  71.445  0.00  0.00    -0.087 Cl
ENDBRANCH  14  16
ENDBRANCH  12  15
BRANCH  12  19
ATOM     19  C   UNL     1      -7.408  17.442  66.427  0.00  0.00    +0.207 C 
ATOM     20  O   UNL     1      -6.386  16.521  66.465  0.00  0.00    -0.218 OA
ENDBRANCH  12  19
ENDBRANCH   1  12
TORSDOF 6
ENDMDL
MODEL 6
REMARK VINA RESULT:      -5.7      3.546      4.852
REMARK  Name = 
REMARK  6 active torsions:
REMARK  status: ('A' for Active; 'I' for Inactive)
REMARK    1  A    between atoms: C_2  and  C_18
REMARK    2  A    between atoms: N_3  and  CA_4
REMARK    3  A    between atoms: CA_4  and  C_5
REMARK    4  A    between atoms: CA_4  and  C_7
REMARK    5  A    between atoms: C_7  and  C_9
REMARK    6  A    between atoms: C_12  and  N_13
REMARK                            x       y       z     vdW  Elec       q    Type
REMARK                         _______ _______ _______ _____ _____    ______ ____
ROOT
ATOM      1  C   UNL     1     -12.238  10.495  69.747  0.00  0.00    +0.197 C 
ATOM      2  O   UNL     1     -12.127  11.251  68.409  0.00  0.00    -0.216 OA
ENDROOT
BRANCH   1   3
ATOM      3  C   UNL     1     -12.236  11.888  70.612  0.00  0.00    +0.010 A 
ATOM      4  C   UNL     1     -13.167  11.862  71.623  0.00  0.00    +0.005 A 
ATOM      5  C   UNL     1     -13.398  13.063  72.285  0.00  0.00    +0.075 A 
ATOM      6  C   UNL     1     -13.031  14.260  71.684  0.00  0.00    +0.290 A 
ATOM      7  C   UNL     1     -12.173  14.229  70.606  0.00  0.00    +0.075 A 
ATOM      8  C   UNL     1     -12.087  13.033  69.906  0.00  0.00    +0.005 A 
BRANCH   6   9
ATOM      9  N   UNL     1     -13.103  15.501  72.397  0.00  0.00    +0.081 N 
ATOM     10  O   UNL     1     -12.010  16.351  72.357  0.00  0.00    -0.576 OA
ATOM     11  O   UNL     1     -14.229  16.026  72.565  0.00  0.00    +0.041 OA
ENDBRANCH   6   9
ENDBRANCH   1   3
BRANCH   1  12
ATOM     12  CA  UNL     1     -10.494  10.315  69.884  0.00  0.00    +0.163 C 
BRANCH  12  15
ATOM     13  O   UNL     1      -8.612   9.899  67.988  0.00  0.00    -0.271 OA
ATOM     14  C   UNL     1      -9.321   9.192  67.919  0.00  0.00    +0.272 C 
ATOM     15  N   UNL     1     -10.418   9.185  68.787  0.00  0.00    -0.199 NA
BRANCH  14  16
ATOM     16  C   UNL     1      -9.382   8.222  66.776  0.00  0.00    +0.236 C 
ATOM     17 CL   UNL     1      -9.628   9.188  65.292  0.00  0.00    -0.087 Cl
ATOM     18 CL   UNL     1     -10.874   7.248  66.950  0.00  0.00    -0.087 Cl
ENDBRANCH  14  16
ENDBRANCH  12  15
BRANCH  12  19
ATOM     19  C   UNL     1     -10.644   9.226  71.113  0.00  0.00    +0.207 C 
ATOM     20  O   UNL     1      -9.354   8.966  71.521  0.00  0.00    -0.218 OA
ENDBRANCH  12  19
ENDBRANCH   1  12
TORSDOF 6
ENDMDL
MODEL 7
REMARK VINA RESULT:      -5.7      4.715      5.694
REMARK  Name = 
REMARK  6 active torsions:
REMARK  status: ('A' for Active; 'I' for Inactive)
REMARK    1  A    between atoms: C_2  and  C_18
REMARK    2  A    between atoms: N_3  and  CA_4
REMARK    3  A    between atoms: CA_4  and  C_5
REMARK    4  A    between atoms: CA_4  and  C_7
REMARK    5  A    between atoms: C_7  and  C_9
REMARK    6  A    between atoms: C_12  and  N_13
REMARK                            x       y       z     vdW  Elec       q    Type
REMARK                         _______ _______ _______ _____ _____    ______ ____
ROOT
ATOM      1  C   UNL     1      -7.917  17.689  66.357  0.00  0.00    +0.197 C 
ATOM      2  O   UNL     1      -7.318  16.281  66.543  0.00  0.00    -0.216 OA
ENDROOT
BRANCH   1   3
ATOM      3  C   UNL     1      -7.400  18.178  67.834  0.00  0.00    +0.010 A 
ATOM      4  C   UNL     1      -7.190  19.536  67.878  0.00  0.00    +0.005 A 
ATOM      5  C   UNL     1      -6.553  20.029  69.010  0.00  0.00    +0.075 A 
ATOM      6  C   UNL     1      -5.819  19.168  69.816  0.00  0.00    +0.290 A 
ATOM      7  C   UNL     1      -5.986  17.809  69.665  0.00  0.00    +0.075 A 
ATOM      8  C   UNL     1      -6.507  17.370  68.455  0.00  0.00    +0.005 A 
BRANCH   6   9
ATOM      9  N   UNL     1      -5.284  19.602  71.073  0.00  0.00    +0.081 N 
ATOM     10  O   UNL     1      -5.498  20.913  71.465  0.00  0.00    -0.576 OA
ATOM     11  O   UNL     1      -5.136  18.752  71.982  0.00  0.00    +0.041 OA
ENDBRANCH   6   9
ENDBRANCH   1   3
BRANCH   1  12
ATOM     12  CA  UNL     1      -9.484  17.194  66.983  0.00  0.00    +0.163 C 
BRANCH  12  15
ATOM     13  O   UNL     1     -10.702  14.782  66.893  0.00  0.00    -0.271 OA
ATOM     14  C   UNL     1     -10.465  15.075  65.962  0.00  0.00    +0.272 C 
ATOM     15  N   UNL     1      -9.817  16.293  65.733  0.00  0.00    -0.199 NA
BRANCH  14  16
ATOM     16  C   UNL     1     -10.593  14.165  64.776  0.00  0.00    +0.236 C 
ATOM     17 CL   UNL     1     -12.286  14.285  64.214  0.00  0.00    -0.087 Cl
ATOM     18 CL   UNL     1     -10.410  12.477  65.345  0.00  0.00    -0.087 Cl
ENDBRANCH  14  16
ENDBRANCH  12  15
BRANCH  12  19
ATOM     19  C   UNL     1     -10.227  18.515  66.332  0.00  0.00    +0.207 C 
ATOM     20  O   UNL     1     -10.972  19.050  67.360  0.00  0.00    -0.218 OA
ENDBRANCH  12  19
ENDBRANCH   1  12
TORSDOF 6
ENDMDL
MODEL 8
REMARK VINA RESULT:      -5.6      3.873      4.896
REMARK  Name = 
REMARK  6 active torsions:
REMARK  status: ('A' for Active; 'I' for Inactive)
REMARK    1  A    between atoms: C_2  and  C_18
REMARK    2  A    between atoms: N_3  and  CA_4
REMARK    3  A    between atoms: CA_4  and  C_5
REMARK    4  A    between atoms: CA_4  and  C_7
REMARK    5  A    between atoms: C_7  and  C_9
REMARK    6  A    between atoms: C_12  and  N_13
REMARK                            x       y       z     vdW  Elec       q    Type
REMARK                         _______ _______ _______ _____ _____    ______ ____
ROOT
ATOM      1  C   UNL     1     -10.591  16.094  67.817  0.00  0.00    +0.197 C 
ATOM      2  O   UNL     1     -10.950  17.528  68.257  0.00  0.00    -0.216 OA
ENDROOT
BRANCH   1   3
ATOM      3  C   UNL     1     -11.028  15.467  69.268  0.00  0.00    +0.010 A 
ATOM      4  C   UNL     1     -11.763  14.314  69.125  0.00  0.00    +0.005 A 
ATOM      5  C   UNL     1     -12.363  13.814  70.275  0.00  0.00    +0.075 A 
ATOM      6  C   UNL     1     -12.549  14.647  71.371  0.00  0.00    +0.290 A 
ATOM      7  C   UNL     1     -11.868  15.843  71.422  0.00  0.00    +0.075 A 
ATOM      8  C   UNL     1     -11.407  16.356  70.217  0.00  0.00    +0.005 A 
BRANCH   6   9
ATOM      9  N   UNL     1     -13.013  14.131  72.624  0.00  0.00    +0.081 N 
ATOM     10  O   UNL     1     -12.721  14.838  73.779  0.00  0.00    -0.576 OA
ATOM     11  O   UNL     1     -14.053  13.430  72.632  0.00  0.00    +0.041 OA
ENDBRANCH   6   9
ENDBRANCH   1   3
BRANCH   1  12
ATOM     12  CA  UNL     1      -8.913  16.276  68.314  0.00  0.00    +0.163 C 
BRANCH  12  15
ATOM     13  O   UNL     1      -7.529  18.596  68.416  0.00  0.00    -0.271 OA
ATOM     14  C   UNL     1      -7.824  18.421  67.472  0.00  0.00    +0.272 C 
ATOM     15  N   UNL     1      -8.568  17.282  67.149  0.00  0.00    -0.199 NA
BRANCH  14  16
ATOM     16  C   UNL     1      -7.680  19.442  66.383  0.00  0.00    +0.236 C 
ATOM     17 CL   UNL     1      -6.469  18.804  65.234  0.00  0.00    -0.087 Cl
ATOM     18 CL   UNL     1      -6.927  20.906  67.087  0.00  0.00    -0.087 Cl
ENDBRANCH  14  16
ENDBRANCH  12  15
BRANCH  12  19
ATOM     19  C   UNL     1      -8.449  14.964  67.428  0.00  0.00    +0.207 C 
ATOM     20  O   UNL     1      -7.073  15.017  67.404  0.00  0.00    -0.218 OA
ENDBRANCH  12  19
ENDBRANCH   1  12
TORSDOF 6
ENDMDL
MODEL 9
REMARK VINA RESULT:      -5.4      4.803      7.396
REMARK  Name = 
REMARK  6 active torsions:
REMARK  status: ('A' for Active; 'I' for Inactive)
REMARK    1  A    between atoms: C_2  and  C_18
REMARK    2  A    between atoms: N_3  and  CA_4
REMARK    3  A    between atoms: CA_4  and  C_5
REMARK    4  A    between atoms: CA_4  and  C_7
REMARK    5  A    between atoms: C_7  and  C_9
REMARK    6  A    between atoms: C_12  and  N_13
REMARK                            x       y       z     vdW  Elec       q    Type
REMARK                         _______ _______ _______ _____ _____    ______ ____
ROOT
ATOM      1  C   UNL     1     -10.979  13.940  66.341  0.00  0.00    +0.197 C 
ATOM      2  O   UNL     1      -9.812  13.998  67.347  0.00  0.00    -0.216 OA
ENDROOT
BRANCH   1   3
ATOM      3  C   UNL     1     -10.259  12.749  65.473  0.00  0.00    +0.010 A 
ATOM      4  C   UNL     1     -11.135  12.159  64.593  0.00  0.00    +0.005 A 
ATOM      5  C   UNL     1     -10.694  11.004  63.959  0.00  0.00    +0.075 A 
ATOM      6  C   UNL     1      -9.633  10.287  64.497  0.00  0.00    +0.290 A 
ATOM      7  C   UNL     1      -8.842  10.885  65.454  0.00  0.00    +0.075 A 
ATOM      8  C   UNL     1      -9.393  11.956  66.145  0.00  0.00    +0.005 A 
BRANCH   6   9
ATOM      9  N   UNL     1      -9.046   9.187  63.790  0.00  0.00    +0.081 N 
ATOM     10  O   UNL     1      -9.062   9.207  62.406  0.00  0.00    -0.576 OA
ATOM     11  O   UNL     1      -8.113   8.556  64.341  0.00  0.00    +0.041 OA
ENDBRANCH   6   9
ENDBRANCH   1   3
BRANCH   1  12
ATOM     12  CA  UNL     1     -10.280  15.202  65.335  0.00  0.00    +0.163 C 
BRANCH  12  15
ATOM     13  O   UNL     1      -8.739  17.334  65.960  0.00  0.00    -0.271 OA
ATOM     14  C   UNL     1      -9.570  17.342  66.524  0.00  0.00    +0.272 C 
ATOM     15  N   UNL     1     -10.535  16.338  66.399  0.00  0.00    -0.199 NA
BRANCH  14  16
ATOM     16  C   UNL     1      -9.754  18.292  67.670  0.00  0.00    +0.236 C 
ATOM     17 CL   UNL     1     -10.719  19.665  67.055  0.00  0.00    -0.087 Cl
ATOM     18 CL   UNL     1      -8.156  18.991  68.077  0.00  0.00    -0.087 Cl
ENDBRANCH  14  16
ENDBRANCH  12  15
BRANCH  12  19
ATOM     19  C   UNL     1     -11.720  15.476  64.578  0.00  0.00    +0.207 C 
ATOM     20  O   UNL     1     -11.546  16.658  63.893  0.00  0.00    -0.218 OA
ENDBRANCH  12  19
ENDBRANCH   1  12
TORSDOF 6
ENDMDL
