MODEL 1
REMARK VINA RESULT:      -7.4      0.000      0.000
REMARK  Name = 
REMARK  7 active torsions:
REMARK  status: ('A' for Active; 'I' for Inactive)
REMARK    1  A    between atoms: C_5  and  C_6
REMARK    2  A    between atoms: N_8  and  C_9
REMARK    3  A    between atoms: C_9  and  C_10
REMARK    4  A    between atoms: C_10  and  C_11
REMARK    5  A    between atoms: C_14  and  S_15
REMARK    6  A    between atoms: S_15  and  N_18
REMARK    7  A    between atoms: N_21  and  C_22
REMARK                            x       y       z     vdW  Elec       q    Type
REMARK                         _______ _______ _______ _____ _____    ______ ____
ROOT
ATOM      1  C   UNL     1      -9.055  10.464  68.430  0.00  0.00    -0.020 A 
ATOM      2  C   UNL     1      -8.690  11.799  68.305  0.00  0.00    -0.003 A 
ATOM      3  C   UNL     1      -9.018  12.521  67.163  0.00  0.00    +0.020 A 
ATOM      4  C   UNL     1      -9.756  11.947  66.135  0.00  0.00    +0.129 A 
ATOM      5  C   UNL     1      -9.739  10.557  66.108  0.00  0.00    +0.020 A 
ATOM      6  C   UNL     1      -9.374   9.829  67.234  0.00  0.00    -0.003 A 
ENDROOT
BRANCH   4   7
ATOM      7  S   UNL     1     -10.980  12.874  65.274  0.00  0.00    +0.104 S 
ATOM      8  O   UNL     1     -12.357  12.493  65.769  0.00  0.00    -0.146 OA
ATOM      9  O   UNL     1     -10.959  12.593  63.808  0.00  0.00    -0.146 OA
BRANCH   7  10
ATOM     10  N   UNL     1     -10.745  14.531  65.647  0.00  0.00    -0.071 NA
ATOM     11  C   UNL     1     -11.085  15.496  64.866  0.00  0.00    +0.371 C 
ATOM     12  N   UNL     1     -10.736  16.813  65.263  0.00  0.00    -0.185 NA
ATOM     13  O   UNL     1     -12.120  15.225  63.966  0.00  0.00    -0.244 OA
BRANCH  12  14
ATOM     14  C   UNL     1      -9.966  17.098  66.470  0.00  0.00    +0.097 C 
ATOM     15  C   UNL     1     -10.212  18.527  66.939  0.00  0.00    +0.022 C 
ATOM     16  C   UNL     1      -9.047  18.905  67.844  0.00  0.00    +0.002 C 
ATOM     17  C   UNL     1      -8.445  17.678  68.481  0.00  0.00    +0.000 C 
ATOM     18  C   UNL     1      -7.664  16.906  67.424  0.00  0.00    +0.002 C 
ATOM     19  C   UNL     1      -8.488  16.971  66.147  0.00  0.00    +0.022 C 
ENDBRANCH  12  14
ENDBRANCH   7  10
ENDBRANCH   4   7
BRANCH   1  20
ATOM     20  C   UNL     1      -9.541   9.935  69.743  0.00  0.00    +0.050 C 
BRANCH  20  21
ATOM     21  C   UNL     1     -10.790   9.100  69.594  0.00  0.00    +0.120 C 
BRANCH  21  23
ATOM     22  C   UNL     1     -12.389  11.017  69.999  0.00  0.00    +0.284 C 
ATOM     23  N   UNL     1     -11.832   9.769  70.369  0.00  0.00    -0.200 NA
ATOM     24  O   UNL     1     -12.426  11.271  68.757  0.00  0.00    -0.267 OA
BRANCH  22  29
ATOM     25  C   UNL     1     -15.183  15.147  71.405  0.00  0.00    +0.054 C 
ATOM     26  C   UNL     1     -13.940  14.360  71.679  0.00  0.00    +0.079 A 
ATOM     27  N   UNL     1     -13.962  13.217  72.408  0.00  0.00    -0.245 NA
ATOM     28  C   UNL     1     -13.167  12.173  72.072  0.00  0.00    +0.122 A 
ATOM     29  C   UNL     1     -12.421  12.180  70.898  0.00  0.00    +0.155 A 
ATOM     30  N   UNL     1     -12.148  13.417  70.415  0.00  0.00    -0.236 NA
ATOM     31  C   UNL     1     -12.811  14.505  70.880  0.00  0.00    +0.114 A 
ENDBRANCH  22  29
ENDBRANCH  21  23
ENDBRANCH  20  21
ENDBRANCH   1  20
TORSDOF 7
ENDMDL
MODEL 2
REMARK VINA RESULT:      -7.4      3.319      4.601
REMARK  Name = 
REMARK  7 active torsions:
REMARK  status: ('A' for Active; 'I' for Inactive)
REMARK    1  A    between atoms: C_5  and  C_6
REMARK    2  A    between atoms: N_8  and  C_9
REMARK    3  A    between atoms: C_9  and  C_10
REMARK    4  A    between atoms: C_10  and  C_11
REMARK    5  A    between atoms: C_14  and  S_15
REMARK    6  A    between atoms: S_15  and  N_18
REMARK    7  A    between atoms: N_21  and  C_22
REMARK                            x       y       z     vdW  Elec       q    Type
REMARK                         _______ _______ _______ _____ _____    ______ ____
ROOT
ATOM      1  C   UNL     1     -10.393  13.915  65.720  0.00  0.00    -0.020 A 
ATOM      2  C   UNL     1      -9.257  14.222  66.459  0.00  0.00    -0.003 A 
ATOM      3  C   UNL     1      -8.975  15.537  66.814  0.00  0.00    +0.020 A 
ATOM      4  C   UNL     1      -9.838  16.574  66.480  0.00  0.00    +0.129 A 
ATOM      5  C   UNL     1     -10.703  16.299  65.427  0.00  0.00    +0.020 A 
ATOM      6  C   UNL     1     -10.959  14.989  65.042  0.00  0.00    -0.003 A 
ENDROOT
BRANCH   4   7
ATOM      7  S   UNL     1     -10.136  17.897  67.601  0.00  0.00    +0.104 S 
ATOM      8  O   UNL     1     -10.758  17.366  68.873  0.00  0.00    -0.146 OA
ATOM      9  O   UNL     1     -11.095  18.895  67.040  0.00  0.00    -0.146 OA
BRANCH   7  10
ATOM     10  N   UNL     1      -8.621  18.583  68.024  0.00  0.00    -0.071 NA
ATOM     11  C   UNL     1      -7.731  18.936  67.164  0.00  0.00    +0.371 C 
ATOM     12  N   UNL     1      -6.485  19.394  67.664  0.00  0.00    -0.185 NA
ATOM     13  O   UNL     1      -8.201  19.261  65.888  0.00  0.00    -0.244 OA
BRANCH  12  14
ATOM     14  C   UNL     1      -6.163  19.416  69.089  0.00  0.00    +0.097 C 
ATOM     15  C   UNL     1      -5.588  20.770  69.488  0.00  0.00    +0.022 C 
ATOM     16  C   UNL     1      -4.831  20.564  70.794  0.00  0.00    +0.002 C 
ATOM     17  C   UNL     1      -5.395  19.393  71.559  0.00  0.00    +0.000 C 
ATOM     18  C   UNL     1      -4.986  18.102  70.859  0.00  0.00    +0.002 C 
ATOM     19  C   UNL     1      -5.100  18.368  69.365  0.00  0.00    +0.022 C 
ENDBRANCH  12  14
ENDBRANCH   7  10
ENDBRANCH   4   7
BRANCH   1  20
ATOM     20  C   UNL     1     -11.191  12.690  66.039  0.00  0.00    +0.050 C 
BRANCH  20  21
ATOM     21  C   UNL     1     -11.305  12.455  67.526  0.00  0.00    +0.120 C 
BRANCH  21  23
ATOM     22  C   UNL     1     -11.807  14.189  69.297  0.00  0.00    +0.284 C 
ATOM     23  N   UNL     1     -12.096  13.560  68.062  0.00  0.00    -0.200 NA
ATOM     24  O   UNL     1     -10.589  14.209  69.647  0.00  0.00    -0.267 OA
BRANCH  22  29
ATOM     25  C   UNL     1     -12.393  15.389  74.303  0.00  0.00    +0.054 C 
ATOM     26  C   UNL     1     -13.108  15.009  73.044  0.00  0.00    +0.079 A 
ATOM     27  N   UNL     1     -13.373  15.914  72.071  0.00  0.00    -0.245 NA
ATOM     28  C   UNL     1     -13.291  15.562  70.764  0.00  0.00    +0.122 A 
ATOM     29  C   UNL     1     -12.793  14.321  70.380  0.00  0.00    +0.155 A 
ATOM     30  N   UNL     1     -12.887  13.361  71.332  0.00  0.00    -0.236 NA
ATOM     31  C   UNL     1     -13.157  13.685  72.621  0.00  0.00    +0.114 A 
ENDBRANCH  22  29
ENDBRANCH  21  23
ENDBRANCH  20  21
ENDBRANCH   1  20
TORSDOF 7
ENDMDL
MODEL 3
REMARK VINA RESULT:      -7.4      2.703      4.796
REMARK  Name = 
REMARK  7 active torsions:
REMARK  status: ('A' for Active; 'I' for Inactive)
REMARK    1  A    between atoms: C_5  and  C_6
REMARK    2  A    between atoms: N_8  and  C_9
REMARK    3  A    between atoms: C_9  and  C_10
REMARK    4  A    between atoms: C_10  and  C_11
REMARK    5  A    between atoms: C_14  and  S_15
REMARK    6  A    between atoms: S_15  and  N_18
REMARK    7  A    between atoms: N_21  and  C_22
REMARK                            x       y       z     vdW  Elec       q    Type
REMARK                         _______ _______ _______ _____ _____    ______ ____
ROOT
ATOM      1  C   UNL     1     -10.174   9.715  67.753  0.00  0.00    -0.020 A 
ATOM      2  C   UNL     1     -10.411  10.081  66.433  0.00  0.00    -0.003 A 
ATOM      3  C   UNL     1     -11.040  11.284  66.133  0.00  0.00    +0.020 A 
ATOM      4  C   UNL     1     -11.411  12.174  67.134  0.00  0.00    +0.129 A 
ATOM      5  C   UNL     1     -11.536  11.611  68.400  0.00  0.00    +0.020 A 
ATOM      6  C   UNL     1     -10.942  10.391  68.696  0.00  0.00    -0.003 A 
ENDROOT
BRANCH   4   7
ATOM      7  S   UNL     1     -11.244  13.911  66.906  0.00  0.00    +0.104 S 
ATOM      8  O   UNL     1     -12.262  14.399  65.900  0.00  0.00    -0.146 OA
ATOM      9  O   UNL     1      -9.900  14.274  66.365  0.00  0.00    -0.146 OA
BRANCH   7  10
ATOM     10  N   UNL     1     -11.598  14.675  68.400  0.00  0.00    -0.071 NA
ATOM     11  C   UNL     1     -11.217  15.867  68.703  0.00  0.00    +0.371 C 
ATOM     12  N   UNL     1     -11.497  16.330  70.014  0.00  0.00    -0.185 NA
ATOM     13  O   UNL     1     -10.982  16.730  67.628  0.00  0.00    -0.244 OA
BRANCH  12  14
ATOM     14  C   UNL     1     -12.132  15.494  71.030  0.00  0.00    +0.097 C 
ATOM     15  C   UNL     1     -13.629  15.380  70.772  0.00  0.00    +0.022 C 
ATOM     16  C   UNL     1     -14.276  14.955  72.084  0.00  0.00    +0.002 C 
ATOM     17  C   UNL     1     -13.295  14.194  72.940  0.00  0.00    +0.000 C 
ATOM     18  C   UNL     1     -12.270  15.172  73.504  0.00  0.00    +0.002 C 
ATOM     19  C   UNL     1     -11.950  16.153  72.386  0.00  0.00    +0.022 C 
ENDBRANCH  12  14
ENDBRANCH   7  10
ENDBRANCH   4   7
BRANCH   1  20
ATOM     20  C   UNL     1      -8.887   9.052  68.131  0.00  0.00    +0.050 C 
BRANCH  20  21
ATOM     21  C   UNL     1      -8.906   7.569  67.851  0.00  0.00    +0.120 C 
BRANCH  21  23
ATOM     22  C   UNL     1     -10.502   6.508  69.501  0.00  0.00    +0.284 C 
ATOM     23  N   UNL     1      -9.199   6.909  69.121  0.00  0.00    -0.200 NA
ATOM     24  O   UNL     1     -11.289   6.188  68.560  0.00  0.00    -0.267 OA
BRANCH  22  29
ATOM     25  C   UNL     1     -13.088  10.361  71.803  0.00  0.00    +0.054 C 
ATOM     26  C   UNL     1     -12.559   8.972  71.972  0.00  0.00    +0.079 A 
ATOM     27  N   UNL     1     -13.209   7.893  71.470  0.00  0.00    -0.245 NA
ATOM     28  C   UNL     1     -12.513   6.857  70.941  0.00  0.00    +0.122 A 
ATOM     29  C   UNL     1     -11.136   6.928  70.760  0.00  0.00    +0.155 A 
ATOM     30  N   UNL     1     -10.510   7.816  71.570  0.00  0.00    -0.236 NA
ATOM     31  C   UNL     1     -11.217   8.747  72.257  0.00  0.00    +0.114 A 
ENDBRANCH  22  29
ENDBRANCH  21  23
ENDBRANCH  20  21
ENDBRANCH   1  20
TORSDOF 7
ENDMDL
MODEL 4
REMARK VINA RESULT:      -7.4      2.126      2.835
REMARK  Name = 
REMARK  7 active torsions:
REMARK  status: ('A' for Active; 'I' for Inactive)
REMARK    1  A    between atoms: C_5  and  C_6
REMARK    2  A    between atoms: N_8  and  C_9
REMARK    3  A    between atoms: C_9  and  C_10
REMARK    4  A    between atoms: C_10  and  C_11
REMARK    5  A    between atoms: C_14  and  S_15
REMARK    6  A    between atoms: S_15  and  N_18
REMARK    7  A    between atoms: N_21  and  C_22
REMARK                            x       y       z     vdW  Elec       q    Type
REMARK                         _______ _______ _______ _____ _____    ______ ____
ROOT
ATOM      1  C   UNL     1      -9.286  10.297  65.630  0.00  0.00    -0.020 A 
ATOM      2  C   UNL     1      -8.774  11.467  66.178  0.00  0.00    -0.003 A 
ATOM      3  C   UNL     1      -9.451  12.673  66.036  0.00  0.00    +0.020 A 
ATOM      4  C   UNL     1     -10.676  12.739  65.383  0.00  0.00    +0.129 A 
ATOM      5  C   UNL     1     -10.938  11.680  64.521  0.00  0.00    +0.020 A 
ATOM      6  C   UNL     1     -10.238  10.484  64.633  0.00  0.00    -0.003 A 
ENDROOT
BRANCH   4   7
ATOM      7  S   UNL     1     -11.958  13.792  65.971  0.00  0.00    +0.104 S 
ATOM      8  O   UNL     1     -12.343  13.397  67.379  0.00  0.00    -0.146 OA
ATOM      9  O   UNL     1     -13.194  13.678  65.141  0.00  0.00    -0.146 OA
BRANCH   7  10
ATOM     10  N   UNL     1     -11.338  15.389  66.042  0.00  0.00    -0.071 NA
ATOM     11  C   UNL     1     -11.200  16.150  65.013  0.00  0.00    +0.371 C 
ATOM     12  N   UNL     1     -10.579  17.410  65.210  0.00  0.00    -0.185 NA
ATOM     13  O   UNL     1     -12.044  15.882  63.931  0.00  0.00    -0.244 OA
BRANCH  12  14
ATOM     14  C   UNL     1     -10.045  17.837  66.502  0.00  0.00    +0.097 C 
ATOM     15  C   UNL     1     -10.596  19.205  66.884  0.00  0.00    +0.022 C 
ATOM     16  C   UNL     1      -9.652  19.790  67.927  0.00  0.00    +0.002 C 
ATOM     17  C   UNL     1      -8.943  18.692  68.680  0.00  0.00    +0.000 C 
ATOM     18  C   UNL     1      -7.901  18.058  67.766  0.00  0.00    +0.002 C 
ATOM     19  C   UNL     1      -8.537  17.967  66.387  0.00  0.00    +0.022 C 
ENDBRANCH  12  14
ENDBRANCH   7  10
ENDBRANCH   4   7
BRANCH   1  20
ATOM     20  C   UNL     1      -9.197   9.009  66.386  0.00  0.00    +0.050 C 
BRANCH  20  21
ATOM     21  C   UNL     1      -9.026   9.229  67.870  0.00  0.00    +0.120 C 
BRANCH  21  23
ATOM     22  C   UNL     1     -10.810  10.273  69.327  0.00  0.00    +0.284 C 
ATOM     23  N   UNL     1     -10.370   9.259  68.443  0.00  0.00    -0.200 NA
ATOM     24  O   UNL     1     -10.289  11.418  69.174  0.00  0.00    -0.267 OA
BRANCH  22  29
ATOM     25  C   UNL     1     -14.718   7.954  71.815  0.00  0.00    +0.054 C 
ATOM     26  C   UNL     1     -13.437   8.709  71.984  0.00  0.00    +0.079 A 
ATOM     27  N   UNL     1     -12.229   8.105  71.859  0.00  0.00    -0.245 NA
ATOM     28  C   UNL     1     -11.193   8.756  71.274  0.00  0.00    +0.122 A 
ATOM     29  C   UNL     1     -11.371   9.990  70.657  0.00  0.00    +0.155 A 
ATOM     30  N   UNL     1     -12.441  10.691  71.103  0.00  0.00    -0.236 NA
ATOM     31  C   UNL     1     -13.399  10.092  71.854  0.00  0.00    +0.114 A 
ENDBRANCH  22  29
ENDBRANCH  21  23
ENDBRANCH  20  21
ENDBRANCH   1  20
TORSDOF 7
ENDMDL
MODEL 5
REMARK VINA RESULT:      -7.3      2.432      3.287
REMARK  Name = 
REMARK  7 active torsions:
REMARK  status: ('A' for Active; 'I' for Inactive)
REMARK    1  A    between atoms: C_5  and  C_6
REMARK    2  A    between atoms: N_8  and  C_9
REMARK    3  A    between atoms: C_9  and  C_10
REMARK    4  A    between atoms: C_10  and  C_11
REMARK    5  A    between atoms: C_14  and  S_15
REMARK    6  A    between atoms: S_15  and  N_18
REMARK    7  A    between atoms: N_21  and  C_22
REMARK                            x       y       z     vdW  Elec       q    Type
REMARK                         _______ _______ _______ _____ _____    ______ ____
ROOT
ATOM      1  C   UNL     1      -9.717  11.097  67.808  0.00  0.00    -0.020 A 
ATOM      2  C   UNL     1      -9.839  10.711  66.478  0.00  0.00    -0.003 A 
ATOM      3  C   UNL     1     -10.808  11.282  65.660  0.00  0.00    +0.020 A 
ATOM      4  C   UNL     1     -11.651  12.282  66.130  0.00  0.00    +0.129 A 
ATOM      5  C   UNL     1     -11.776  12.338  67.514  0.00  0.00    +0.020 A 
ATOM      6  C   UNL     1     -10.832  11.737  68.337  0.00  0.00    -0.003 A 
ENDROOT
BRANCH   4   7
ATOM      7  S   UNL     1     -12.105  13.638  65.104  0.00  0.00    +0.104 S 
ATOM      8  O   UNL     1     -13.565  13.972  65.309  0.00  0.00    -0.146 OA
ATOM      9  O   UNL     1     -11.939  13.317  63.655  0.00  0.00    -0.146 OA
BRANCH   7  10
ATOM     10  N   UNL     1     -11.196  15.004  65.602  0.00  0.00    -0.071 NA
ATOM     11  C   UNL     1     -11.033  16.057  64.880  0.00  0.00    +0.371 C 
ATOM     12  N   UNL     1     -10.171  17.066  65.381  0.00  0.00    -0.185 NA
ATOM     13  O   UNL     1     -12.025  16.312  63.929  0.00  0.00    -0.244 OA
BRANCH  12  14
ATOM     14  C   UNL     1      -9.428  16.925  66.631  0.00  0.00    +0.097 C 
ATOM     15  C   UNL     1      -9.346  18.261  67.360  0.00  0.00    +0.022 C 
ATOM     16  C   UNL     1      -8.181  18.163  68.336  0.00  0.00    +0.002 C 
ATOM     17  C   UNL     1      -7.937  16.730  68.735  0.00  0.00    +0.000 C 
ATOM     18  C   UNL     1      -7.306  15.991  67.561  0.00  0.00    +0.002 C 
ATOM     19  C   UNL     1      -8.009  16.491  66.308  0.00  0.00    +0.022 C 
ENDBRANCH  12  14
ENDBRANCH   7  10
ENDBRANCH   4   7
BRANCH   1  20
ATOM     20  C   UNL     1      -8.362  11.261  68.422  0.00  0.00    +0.050 C 
BRANCH  20  21
ATOM     21  C   UNL     1      -7.710   9.935  68.727  0.00  0.00    +0.120 C 
BRANCH  21  23
ATOM     22  C   UNL     1      -8.949   8.671  70.534  0.00  0.00    +0.284 C 
ATOM     23  N   UNL     1      -8.000   9.640  70.128  0.00  0.00    -0.200 NA
ATOM     24  O   UNL     1      -9.115   7.686  69.754  0.00  0.00    -0.267 OA
BRANCH  22  29
ATOM     25  C   UNL     1     -13.891   7.551  71.609  0.00  0.00    +0.054 C 
ATOM     26  C   UNL     1     -12.693   8.337  72.042  0.00  0.00    +0.079 A 
ATOM     27  N   UNL     1     -11.678   7.768  72.737  0.00  0.00    -0.245 NA
ATOM     28  C   UNL     1     -10.393   8.129  72.498  0.00  0.00    +0.122 A 
ATOM     29  C   UNL     1     -10.065   8.973  71.442  0.00  0.00    +0.155 A 
ATOM     30  N   UNL     1     -11.078   9.773  71.027  0.00  0.00    -0.236 NA
ATOM     31  C   UNL     1     -12.355   9.531  71.415  0.00  0.00    +0.114 A 
ENDBRANCH  22  29
ENDBRANCH  21  23
ENDBRANCH  20  21
ENDBRANCH   1  20
TORSDOF 7
ENDMDL
MODEL 6
REMARK VINA RESULT:      -7.2      1.868      6.011
REMARK  Name = 
REMARK  7 active torsions:
REMARK  status: ('A' for Active; 'I' for Inactive)
REMARK    1  A    between atoms: C_5  and  C_6
REMARK    2  A    between atoms: N_8  and  C_9
REMARK    3  A    between atoms: C_9  and  C_10
REMARK    4  A    between atoms: C_10  and  C_11
REMARK    5  A    between atoms: C_14  and  S_15
REMARK    6  A    between atoms: S_15  and  N_18
REMARK    7  A    between atoms: N_21  and  C_22
REMARK                            x       y       z     vdW  Elec       q    Type
REMARK                         _______ _______ _______ _____ _____    ______ ____
ROOT
ATOM      1  C   UNL     1      -9.433  10.726  65.797  0.00  0.00    -0.020 A 
ATOM      2  C   UNL     1      -9.948   9.465  66.070  0.00  0.00    -0.003 A 
ATOM      3  C   UNL     1      -9.989   8.983  67.374  0.00  0.00    +0.020 A 
ATOM      4  C   UNL     1      -9.561   9.760  68.443  0.00  0.00    +0.129 A 
ATOM      5  C   UNL     1      -8.701  10.799  68.105  0.00  0.00    +0.020 A 
ATOM      6  C   UNL     1      -8.626  11.259  66.796  0.00  0.00    -0.003 A 
ENDROOT
BRANCH   4   7
ATOM      7  S   UNL     1     -10.417   9.732  69.981  0.00  0.00    +0.104 S 
ATOM      8  O   UNL     1      -9.430   9.592  71.118  0.00  0.00    -0.146 OA
ATOM      9  O   UNL     1     -11.348   8.568  70.077  0.00  0.00    -0.146 OA
BRANCH   7  10
ATOM     10  N   UNL     1     -11.205  11.243  70.174  0.00  0.00    -0.071 NA
ATOM     11  C   UNL     1     -11.834  11.848  69.228  0.00  0.00    +0.371 C 
ATOM     12  N   UNL     1     -12.350  13.140  69.507  0.00  0.00    -0.185 NA
ATOM     13  O   UNL     1     -12.332  11.038  68.203  0.00  0.00    -0.244 OA
BRANCH  12  14
ATOM     14  C   UNL     1     -12.140  13.817  70.784  0.00  0.00    +0.097 C 
ATOM     15  C   UNL     1     -13.239  13.447  71.774  0.00  0.00    +0.022 C 
ATOM     16  C   UNL     1     -13.253  14.529  72.847  0.00  0.00    +0.002 C 
ATOM     17  C   UNL     1     -11.895  15.174  72.973  0.00  0.00    +0.000 C 
ATOM     18  C   UNL     1     -11.658  16.066  71.760  0.00  0.00    +0.002 C 
ATOM     19  C   UNL     1     -12.213  15.317  70.559  0.00  0.00    +0.022 C 
ENDBRANCH  12  14
ENDBRANCH   7  10
ENDBRANCH   4   7
BRANCH   1  20
ATOM     20  C   UNL     1     -10.092  11.604  64.780  0.00  0.00    +0.050 C 
BRANCH  20  21
ATOM     21  C   UNL     1     -11.515  11.941  65.153  0.00  0.00    +0.120 C 
BRANCH  21  23
ATOM     22  C   UNL     1     -11.720  14.460  65.068  0.00  0.00    +0.284 C 
ATOM     23  N   UNL     1     -11.480  13.260  65.780  0.00  0.00    -0.200 NA
ATOM     24  O   UNL     1     -12.509  14.379  64.080  0.00  0.00    -0.267 OA
BRANCH  22  29
ATOM     25  C   UNL     1     -10.264  18.745  67.589  0.00  0.00    +0.054 C 
ATOM     26  C   UNL     1      -9.969  17.850  66.427  0.00  0.00    +0.079 A 
ATOM     27  N   UNL     1      -9.291  16.685  66.575  0.00  0.00    -0.245 NA
ATOM     28  C   UNL     1      -9.636  15.593  65.850  0.00  0.00    +0.122 A 
ATOM     29  C   UNL     1     -10.774  15.586  65.050  0.00  0.00    +0.155 A 
ATOM     30  N   UNL     1     -11.191  16.814  64.657  0.00  0.00    -0.236 NA
ATOM     31  C   UNL     1     -10.709  17.933  65.253  0.00  0.00    +0.114 A 
ENDBRANCH  22  29
ENDBRANCH  21  23
ENDBRANCH  20  21
ENDBRANCH   1  20
TORSDOF 7
ENDMDL
MODEL 7
REMARK VINA RESULT:      -7.2      2.137      4.420
REMARK  Name = 
REMARK  7 active torsions:
REMARK  status: ('A' for Active; 'I' for Inactive)
REMARK    1  A    between atoms: C_5  and  C_6
REMARK    2  A    between atoms: N_8  and  C_9
REMARK    3  A    between atoms: C_9  and  C_10
REMARK    4  A    between atoms: C_10  and  C_11
REMARK    5  A    between atoms: C_14  and  S_15
REMARK    6  A    between atoms: S_15  and  N_18
REMARK    7  A    between atoms: N_21  and  C_22
REMARK                            x       y       z     vdW  Elec       q    Type
REMARK                         _______ _______ _______ _____ _____    ______ ____
ROOT
ATOM      1  C   UNL     1     -12.055  11.173  70.477  0.00  0.00    -0.020 A 
ATOM      2  C   UNL     1     -12.239  12.537  70.289  0.00  0.00    -0.003 A 
ATOM      3  C   UNL     1     -11.658  13.190  69.207  0.00  0.00    +0.020 A 
ATOM      4  C   UNL     1     -10.917  12.494  68.260  0.00  0.00    +0.129 A 
ATOM      5  C   UNL     1     -10.424  11.266  68.689  0.00  0.00    +0.020 A 
ATOM      6  C   UNL     1     -10.974  10.627  69.793  0.00  0.00    -0.003 A 
ENDROOT
BRANCH   4   7
ATOM      7  S   UNL     1     -11.023  12.902  66.551  0.00  0.00    +0.104 S 
ATOM      8  O   UNL     1     -12.410  12.596  66.033  0.00  0.00    -0.146 OA
ATOM      9  O   UNL     1     -10.072  12.097  65.728  0.00  0.00    -0.146 OA
BRANCH   7  10
ATOM     10  N   UNL     1     -10.784  14.593  66.396  0.00  0.00    -0.071 NA
ATOM     11  C   UNL     1     -10.785  15.216  65.270  0.00  0.00    +0.371 C 
ATOM     12  N   UNL     1     -10.473  16.600  65.288  0.00  0.00    -0.185 NA
ATOM     13  O   UNL     1     -11.508  14.616  64.235  0.00  0.00    -0.244 OA
BRANCH  12  14
ATOM     14  C   UNL     1     -10.095  17.311  66.507  0.00  0.00    +0.097 C 
ATOM     15  C   UNL     1     -10.547  18.765  66.442  0.00  0.00    +0.022 C 
ATOM     16  C   UNL     1      -9.711  19.536  67.456  0.00  0.00    +0.002 C 
ATOM     17  C   UNL     1      -9.245  18.627  68.565  0.00  0.00    +0.000 C 
ATOM     18  C   UNL     1      -8.152  17.710  68.026  0.00  0.00    +0.002 C 
ATOM     19  C   UNL     1      -8.581  17.307  66.624  0.00  0.00    +0.022 C 
ENDBRANCH  12  14
ENDBRANCH   7  10
ENDBRANCH   4   7
BRANCH   1  20
ATOM     20  C   UNL     1     -13.190  10.317  70.943  0.00  0.00    +0.050 C 
BRANCH  20  21
ATOM     21  C   UNL     1     -12.850   9.552  72.199  0.00  0.00    +0.120 C 
BRANCH  21  23
ATOM     22  C   UNL     1     -11.386   7.508  71.927  0.00  0.00    +0.284 C 
ATOM     23  N   UNL     1     -12.633   8.165  71.796  0.00  0.00    -0.200 NA
ATOM     24  O   UNL     1     -10.648   7.889  72.885  0.00  0.00    -0.267 OA
BRANCH  22  29
ATOM     25  C   UNL     1     -10.352   7.892  66.866  0.00  0.00    +0.054 C 
ATOM     26  C   UNL     1     -10.112   7.089  68.106  0.00  0.00    +0.079 A 
ATOM     27  N   UNL     1      -9.203   7.468  69.038  0.00  0.00    -0.245 NA
ATOM     28  C   UNL     1      -9.456   7.289  70.357  0.00  0.00    +0.122 A 
ATOM     29  C   UNL     1     -10.701   6.856  70.802  0.00  0.00    +0.155 A 
ATOM     30  N   UNL     1     -11.418   6.169  69.879  0.00  0.00    -0.236 NA
ATOM     31  C   UNL     1     -11.063   6.188  68.570  0.00  0.00    +0.114 A 
ENDBRANCH  22  29
ENDBRANCH  21  23
ENDBRANCH  20  21
ENDBRANCH   1  20
TORSDOF 7
ENDMDL
MODEL 8
REMARK VINA RESULT:      -7.2      2.453      4.372
REMARK  Name = 
REMARK  7 active torsions:
REMARK  status: ('A' for Active; 'I' for Inactive)
REMARK    1  A    between atoms: C_5  and  C_6
REMARK    2  A    between atoms: N_8  and  C_9
REMARK    3  A    between atoms: C_9  and  C_10
REMARK    4  A    between atoms: C_10  and  C_11
REMARK    5  A    between atoms: C_14  and  S_15
REMARK    6  A    between atoms: S_15  and  N_18
REMARK    7  A    between atoms: N_21  and  C_22
REMARK                            x       y       z     vdW  Elec       q    Type
REMARK                         _______ _______ _______ _____ _____    ______ ____
ROOT
ATOM      1  C   UNL     1     -10.741  11.473  65.491  0.00  0.00    -0.020 A 
ATOM      2  C   UNL     1     -10.176  12.149  64.416  0.00  0.00    -0.003 A 
ATOM      3  C   UNL     1     -10.345  13.522  64.274  0.00  0.00    +0.020 A 
ATOM      4  C   UNL     1     -11.041  14.265  65.220  0.00  0.00    +0.129 A 
ATOM      5  C   UNL     1     -11.910  13.528  66.018  0.00  0.00    +0.020 A 
ATOM      6  C   UNL     1     -11.772  12.151  66.134  0.00  0.00    -0.003 A 
ENDROOT
BRANCH   4   7
ATOM      7  S   UNL     1     -10.500  15.875  65.682  0.00  0.00    +0.104 S 
ATOM      8  O   UNL     1     -11.227  16.918  64.864  0.00  0.00    -0.146 OA
ATOM      9  O   UNL     1      -9.042  16.066  65.423  0.00  0.00    -0.146 OA
BRANCH   7  10
ATOM     10  N   UNL     1     -10.931  16.124  67.324  0.00  0.00    -0.071 NA
ATOM     11  C   UNL     1     -10.420  17.043  68.066  0.00  0.00    +0.371 C 
ATOM     12  N   UNL     1     -10.799  17.065  69.433  0.00  0.00    -0.185 NA
ATOM     13  O   UNL     1      -9.920  18.166  67.400  0.00  0.00    -0.244 OA
BRANCH  12  14
ATOM     14  C   UNL     1     -11.680  16.063  70.027  0.00  0.00    +0.097 C 
ATOM     15  C   UNL     1     -11.789  16.270  71.533  0.00  0.00    +0.022 C 
ATOM     16  C   UNL     1     -12.274  14.954  72.128  0.00  0.00    +0.002 C 
ATOM     17  C   UNL     1     -13.066  14.169  71.113  0.00  0.00    +0.000 C 
ATOM     18  C   UNL     1     -12.109  13.602  70.071  0.00  0.00    +0.002 C 
ATOM     19  C   UNL     1     -11.079  14.688  69.797  0.00  0.00    +0.022 C 
ENDBRANCH  12  14
ENDBRANCH   7  10
ENDBRANCH   4   7
BRANCH   1  20
ATOM     20  C   UNL     1      -9.981  10.384  66.179  0.00  0.00    +0.050 C 
BRANCH  20  21
ATOM     21  C   UNL     1     -10.832   9.636  67.177  0.00  0.00    +0.120 C 
BRANCH  21  23
ATOM     22  C   UNL     1     -10.283   9.284  69.620  0.00  0.00    +0.284 C 
ATOM     23  N   UNL     1     -10.455  10.130  68.499  0.00  0.00    -0.200 NA
ATOM     24  O   UNL     1      -9.889   8.104  69.379  0.00  0.00    -0.267 OA
BRANCH  22  29
ATOM     25  C   UNL     1     -14.677   8.240  72.157  0.00  0.00    +0.054 C 
ATOM     26  C   UNL     1     -13.329   8.881  72.260  0.00  0.00    +0.079 A 
ATOM     27  N   UNL     1     -12.205   8.152  72.474  0.00  0.00    -0.245 NA
ATOM     28  C   UNL     1     -11.043   8.486  71.862  0.00  0.00    +0.122 A 
ATOM     29  C   UNL     1     -10.997   9.481  70.891  0.00  0.00    +0.155 A 
ATOM     30  N   UNL     1     -12.002  10.388  70.969  0.00  0.00    -0.236 NA
ATOM     31  C   UNL     1     -13.096  10.146  71.733  0.00  0.00    +0.114 A 
ENDBRANCH  22  29
ENDBRANCH  21  23
ENDBRANCH  20  21
ENDBRANCH   1  20
TORSDOF 7
ENDMDL
MODEL 9
REMARK VINA RESULT:      -7.1      2.602      3.559
REMARK  Name = 
REMARK  7 active torsions:
REMARK  status: ('A' for Active; 'I' for Inactive)
REMARK    1  A    between atoms: C_5  and  C_6
REMARK    2  A    between atoms: N_8  and  C_9
REMARK    3  A    between atoms: C_9  and  C_10
REMARK    4  A    between atoms: C_10  and  C_11
REMARK    5  A    between atoms: C_14  and  S_15
REMARK    6  A    between atoms: S_15  and  N_18
REMARK    7  A    between atoms: N_21  and  C_22
REMARK                            x       y       z     vdW  Elec       q    Type
REMARK                         _______ _______ _______ _____ _____    ______ ____
ROOT
ATOM      1  C   UNL     1     -10.304  10.163  67.635  0.00  0.00    -0.020 A 
ATOM      2  C   UNL     1     -11.404  10.886  68.082  0.00  0.00    -0.003 A 
ATOM      3  C   UNL     1     -11.637  12.178  67.626  0.00  0.00    +0.020 A 
ATOM      4  C   UNL     1     -10.807  12.769  66.680  0.00  0.00    +0.129 A 
ATOM      5  C   UNL     1      -9.540  12.205  66.580  0.00  0.00    +0.020 A 
ATOM      6  C   UNL     1      -9.290  10.929  67.069  0.00  0.00    -0.003 A 
ENDROOT
BRANCH   4   7
ATOM      7  S   UNL     1     -11.470  13.789  65.408  0.00  0.00    +0.104 S 
ATOM      8  O   UNL     1     -12.980  13.737  65.439  0.00  0.00    -0.146 OA
ATOM      9  O   UNL     1     -11.054  13.324  64.051  0.00  0.00    -0.146 OA
BRANCH   7  10
ATOM     10  N   UNL     1     -11.010  15.408  65.736  0.00  0.00    -0.071 NA
ATOM     11  C   UNL     1     -11.095  16.365  64.879  0.00  0.00    +0.371 C 
ATOM     12  N   UNL     1     -10.582  17.631  65.259  0.00  0.00    -0.185 NA
ATOM     13  O   UNL     1     -12.053  16.206  63.873  0.00  0.00    -0.244 OA
BRANCH  12  14
ATOM     14  C   UNL     1      -9.916  17.865  66.538  0.00  0.00    +0.097 C 
ATOM     15  C   UNL     1     -10.668  18.912  67.351  0.00  0.00    +0.022 C 
ATOM     16  C   UNL     1      -9.690  19.459  68.384  0.00  0.00    +0.002 C 
ATOM     17  C   UNL     1      -8.629  18.437  68.707  0.00  0.00    +0.000 C 
ATOM     18  C   UNL     1      -7.670  18.331  67.528  0.00  0.00    +0.002 C 
ATOM     19  C   UNL     1      -8.523  18.406  66.271  0.00  0.00    +0.022 C 
ENDBRANCH  12  14
ENDBRANCH   7  10
ENDBRANCH   4   7
BRANCH   1  20
ATOM     20  C   UNL     1     -10.433   8.703  67.337  0.00  0.00    +0.050 C 
BRANCH  20  21
ATOM     21  C   UNL     1      -9.135   7.961  67.550  0.00  0.00    +0.120 C 
BRANCH  21  23
ATOM     22  C   UNL     1      -9.626   6.632  69.645  0.00  0.00    +0.284 C 
ATOM     23  N   UNL     1      -9.019   7.729  68.987  0.00  0.00    -0.200 NA
ATOM     24  O   UNL     1      -9.766   5.574  68.961  0.00  0.00    -0.267 OA
BRANCH  22  29
ATOM     25  C   UNL     1     -13.067   9.806  71.862  0.00  0.00    +0.054 C 
ATOM     26  C   UNL     1     -12.407   8.466  71.949  0.00  0.00    +0.079 A 
ATOM     27  N   UNL     1     -12.808   7.420  71.185  0.00  0.00    -0.245 NA
ATOM     28  C   UNL     1     -11.899   6.553  70.676  0.00  0.00    +0.122 A 
ATOM     29  C   UNL     1     -10.533   6.787  70.792  0.00  0.00    +0.155 A 
ATOM     30  N   UNL     1     -10.188   7.594  71.824  0.00  0.00    -0.236 NA
ATOM     31  C   UNL     1     -11.125   8.333  72.470  0.00  0.00    +0.114 A 
ENDBRANCH  22  29
ENDBRANCH  21  23
ENDBRANCH  20  21
ENDBRANCH   1  20
TORSDOF 7
ENDMDL
