MODEL 1
REMARK VINA RESULT:      -6.5      0.000      0.000
REMARK  Name = 
REMARK  4 active torsions:
REMARK  status: ('A' for Active; 'I' for Inactive)
REMARK    1  A    between atoms: O_2  and  C_3
REMARK    2  A    between atoms: C_8  and  O_9
REMARK    3  A    between atoms: C_15  and  C_16
REMARK    4  A    between atoms: C_16  and  C_17
REMARK                            x       y       z     vdW  Elec       q    Type
REMARK                         _______ _______ _______ _____ _____    ______ ____
ROOT
ATOM      1  C   UNL     1     -11.570  12.586  67.957  0.00  0.00    +0.172 A 
ATOM      2  C   UNL     1     -12.025  13.081  66.737  0.00  0.00    +0.172 A 
ATOM      3  C   UNL     1     -11.798  14.429  66.476  0.00  0.00    +0.037 A 
ATOM      4  C   UNL     1     -10.847  15.058  67.242  0.00  0.00    -0.008 A 
ATOM      5  C   UNL     1     -10.501  16.584  66.751  0.00  0.00    +0.087 C 
ATOM      6  N   UNL     1      -8.910  16.405  66.756  0.00  0.00    -0.269 NA
ATOM      7  C   UNL     1      -8.568  15.057  66.723  0.00  0.00    +0.077 C 
ATOM      8  C   UNL     1      -8.657  14.663  68.205  0.00  0.00    +0.044 C 
ATOM      9  C   UNL     1      -8.358  17.129  67.814  0.00  0.00    +0.080 C 
ATOM     10  C   UNL     1      -8.704  18.692  67.374  0.00  0.00    +0.074 C 
ATOM     11  C   UNL     1     -10.168  18.612  68.099  0.00  0.00    +0.153 C 
ATOM     12  O   UNL     1     -10.882  19.431  67.557  0.00  0.00    -0.296 OA
ATOM     13  C   UNL     1     -10.581  17.182  68.323  0.00  0.00    +0.085 C 
ATOM     14  C   UNL     1     -10.163  14.547  68.284  0.00  0.00    -0.020 A 
ATOM     15  C   UNL     1     -10.614  13.289  68.686  0.00  0.00    +0.036 A 
ENDROOT
BRANCH   1  17
ATOM     16  C   UNL     1     -12.073  10.772  69.373  0.00  0.00    +0.253 C 
ATOM     17  O   UNL     1     -12.063  11.347  68.369  0.00  0.00    -0.468 OA
ENDBRANCH   1  17
BRANCH   2  18
ATOM     18  O   UNL     1     -12.199  12.148  65.706  0.00  0.00    -0.468 OA
ATOM     19  C   UNL     1     -12.340  12.524  64.353  0.00  0.00    +0.253 C 
ENDBRANCH   2  18
BRANCH  10  20
ATOM     20  C   UNL     1      -7.927  19.312  68.702  0.00  0.00    +0.009 C 
BRANCH  20  21
ATOM     21  C   UNL     1      -6.604  19.808  68.288  0.00  0.00    +0.000 C 
ATOM     22  C   UNL     1      -5.945  20.452  69.506  0.00  0.00    +0.000 C 
ATOM     23  C   UNL     1      -6.599  20.846  67.219  0.00  0.00    +0.000 C 
ENDBRANCH  20  21
ENDBRANCH  10  20
TORSDOF 4
ENDMDL
MODEL 2
REMARK VINA RESULT:      -6.4      2.499      6.856
REMARK  Name = 
REMARK  4 active torsions:
REMARK  status: ('A' for Active; 'I' for Inactive)
REMARK    1  A    between atoms: O_2  and  C_3
REMARK    2  A    between atoms: C_8  and  O_9
REMARK    3  A    between atoms: C_15  and  C_16
REMARK    4  A    between atoms: C_16  and  C_17
REMARK                            x       y       z     vdW  Elec       q    Type
REMARK                         _______ _______ _______ _____ _____    ______ ____
ROOT
ATOM      1  C   UNL     1     -10.547  17.082  68.429  0.00  0.00    +0.172 A 
ATOM      2  C   UNL     1     -11.434  16.270  69.133  0.00  0.00    +0.172 A 
ATOM      3  C   UNL     1     -11.931  15.152  68.472  0.00  0.00    +0.037 A 
ATOM      4  C   UNL     1     -11.247  14.736  67.356  0.00  0.00    -0.008 A 
ATOM      5  C   UNL     1     -11.777  13.308  66.746  0.00  0.00    +0.087 C 
ATOM      6  N   UNL     1     -10.330  12.631  66.626  0.00  0.00    -0.269 NA
ATOM      7  C   UNL     1      -9.411  13.291  67.434  0.00  0.00    +0.077 C 
ATOM      8  C   UNL     1      -8.979  14.465  66.542  0.00  0.00    +0.044 C 
ATOM      9  C   UNL     1      -9.969  12.527  65.282  0.00  0.00    +0.080 C 
ATOM     10  C   UNL     1     -11.096  11.452  64.708  0.00  0.00    +0.074 C 
ATOM     11  C   UNL     1     -12.153  12.663  64.404  0.00  0.00    +0.153 C 
ATOM     12  O   UNL     1     -13.266  12.179  64.420  0.00  0.00    -0.296 OA
ATOM     13  C   UNL     1     -11.784  13.904  65.171  0.00  0.00    +0.085 C 
ATOM     14  C   UNL     1     -10.195  15.336  66.767  0.00  0.00    -0.020 A 
ATOM     15  C   UNL     1      -9.901  16.594  67.296  0.00  0.00    +0.036 A 
ENDROOT
BRANCH   1  17
ATOM     16  C   UNL     1      -9.479  19.154  68.765  0.00  0.00    +0.253 C 
ATOM     17  O   UNL     1     -10.296  18.353  68.945  0.00  0.00    -0.468 OA
ENDBRANCH   1  17
BRANCH   2  18
ATOM     18  O   UNL     1     -11.369  16.333  70.532  0.00  0.00    -0.468 OA
ATOM     19  C   UNL     1     -12.372  15.799  71.367  0.00  0.00    +0.253 C 
ENDBRANCH   2  18
BRANCH  10  20
ATOM     20  C   UNL     1     -10.434  11.462  63.188  0.00  0.00    +0.009 C 
BRANCH  20  21
ATOM     21  C   UNL     1      -9.101  10.838  63.247  0.00  0.00    +0.000 C 
ATOM     22  C   UNL     1      -8.488  10.911  61.850  0.00  0.00    +0.000 C 
ATOM     23  C   UNL     1      -9.067   9.401  63.638  0.00  0.00    +0.000 C 
ENDBRANCH  20  21
ENDBRANCH  10  20
TORSDOF 4
ENDMDL
MODEL 3
REMARK VINA RESULT:      -5.9      2.142      7.099
REMARK  Name = 
REMARK  4 active torsions:
REMARK  status: ('A' for Active; 'I' for Inactive)
REMARK    1  A    between atoms: O_2  and  C_3
REMARK    2  A    between atoms: C_8  and  O_9
REMARK    3  A    between atoms: C_15  and  C_16
REMARK    4  A    between atoms: C_16  and  C_17
REMARK                            x       y       z     vdW  Elec       q    Type
REMARK                         _______ _______ _______ _____ _____    ______ ____
ROOT
ATOM      1  C   UNL     1      -8.276  18.281  66.260  0.00  0.00    +0.172 A 
ATOM      2  C   UNL     1      -9.608  18.611  66.501  0.00  0.00    +0.172 A 
ATOM      3  C   UNL     1     -10.563  17.638  66.225  0.00  0.00    +0.037 A 
ATOM      4  C   UNL     1     -10.113  16.346  66.100  0.00  0.00    -0.008 A 
ATOM      5  C   UNL     1     -11.313  15.235  65.965  0.00  0.00    +0.087 C 
ATOM      6  N   UNL     1     -10.743  14.238  67.081  0.00  0.00    -0.269 NA
ATOM      7  C   UNL     1      -9.842  14.895  67.912  0.00  0.00    +0.077 C 
ATOM      8  C   UNL     1      -8.536  14.805  67.109  0.00  0.00    +0.044 C 
ATOM      9  C   UNL     1     -10.252  13.082  66.473  0.00  0.00    +0.080 C 
ATOM     10  C   UNL     1     -11.635  12.417  65.838  0.00  0.00    +0.074 C 
ATOM     11  C   UNL     1     -11.472  13.294  64.467  0.00  0.00    +0.153 C 
ATOM     12  O   UNL     1     -12.578  13.404  63.979  0.00  0.00    -0.296 OA
ATOM     13  C   UNL     1     -10.547  14.461  64.681  0.00  0.00    +0.085 C 
ATOM     14  C   UNL     1      -8.837  15.914  66.125  0.00  0.00    -0.020 A 
ATOM     15  C   UNL     1      -7.899  16.947  66.129  0.00  0.00    +0.036 A 
ENDROOT
BRANCH   1  17
ATOM     16  C   UNL     1      -6.868  19.948  65.375  0.00  0.00    +0.253 C 
ATOM     17  O   UNL     1      -7.354  19.327  66.222  0.00  0.00    -0.468 OA
ENDBRANCH   1  17
BRANCH   2  18
ATOM     18  O   UNL     1      -9.843  19.633  67.431  0.00  0.00    -0.468 OA
ATOM     19  C   UNL     1      -9.810  19.420  68.825  0.00  0.00    +0.253 C 
ENDBRANCH   2  18
BRANCH  10  20
ATOM     20  C   UNL     1     -10.817  11.097  65.256  0.00  0.00    +0.009 C 
BRANCH  20  21
ATOM     21  C   UNL     1      -9.953  10.566  66.325  0.00  0.00    +0.000 C 
ATOM     22  C   UNL     1      -8.748   9.900  65.664  0.00  0.00    +0.000 C 
ATOM     23  C   UNL     1     -10.563   9.533  67.208  0.00  0.00    +0.000 C 
ENDBRANCH  20  21
ENDBRANCH  10  20
TORSDOF 4
ENDMDL
MODEL 4
REMARK VINA RESULT:      -5.9      2.834      7.229
REMARK  Name = 
REMARK  4 active torsions:
REMARK  status: ('A' for Active; 'I' for Inactive)
REMARK    1  A    between atoms: O_2  and  C_3
REMARK    2  A    between atoms: C_8  and  O_9
REMARK    3  A    between atoms: C_15  and  C_16
REMARK    4  A    between atoms: C_16  and  C_17
REMARK                            x       y       z     vdW  Elec       q    Type
REMARK                         _______ _______ _______ _____ _____    ______ ____
ROOT
ATOM      1  C   UNL     1      -6.420  20.254  66.373  0.00  0.00    +0.172 A 
ATOM      2  C   UNL     1      -6.438  19.242  65.416  0.00  0.00    +0.172 A 
ATOM      3  C   UNL     1      -7.073  18.053  65.760  0.00  0.00    +0.037 A 
ATOM      4  C   UNL     1      -7.930  18.097  66.833  0.00  0.00    -0.008 A 
ATOM      5  C   UNL     1      -8.781  16.712  67.059  0.00  0.00    +0.087 C 
ATOM      6  N   UNL     1     -10.213  17.417  67.195  0.00  0.00    -0.269 NA
ATOM      7  C   UNL     1     -10.182  18.699  66.658  0.00  0.00    +0.077 C 
ATOM      8  C   UNL     1      -9.620  19.526  67.823  0.00  0.00    +0.044 C 
ATOM      9  C   UNL     1     -10.650  17.341  68.518  0.00  0.00    +0.080 C 
ATOM     10  C   UNL     1     -10.855  15.705  68.716  0.00  0.00    +0.074 C 
ATOM     11  C   UNL     1      -9.288  15.524  69.149  0.00  0.00    +0.153 C 
ATOM     12  O   UNL     1      -8.979  14.376  68.903  0.00  0.00    -0.296 OA
ATOM     13  C   UNL     1      -8.468  16.708  68.713  0.00  0.00    +0.085 C 
ATOM     14  C   UNL     1      -8.168  19.138  67.653  0.00  0.00    -0.020 A 
ATOM     15  C   UNL     1      -7.312  20.221  67.442  0.00  0.00    +0.036 A 
ENDROOT
BRANCH   1  17
ATOM     16  C   UNL     1      -4.413  21.483  66.424  0.00  0.00    +0.253 C 
ATOM     17  O   UNL     1      -5.529  21.308  66.174  0.00  0.00    -0.468 OA
ENDBRANCH   1  17
BRANCH   2  18
ATOM     18  O   UNL     1      -6.289  19.639  64.079  0.00  0.00    -0.468 OA
ATOM     19  C   UNL     1      -5.261  19.148  63.247  0.00  0.00    +0.253 C 
ENDBRANCH   2  18
BRANCH  10  20
ATOM     20  C   UNL     1     -11.406  15.892  70.269  0.00  0.00    +0.009 C 
BRANCH  20  21
ATOM     21  C   UNL     1     -12.585  15.029  70.460  0.00  0.00    +0.000 C 
ATOM     22  C   UNL     1     -13.320  15.513  71.709  0.00  0.00    +0.000 C 
ATOM     23  C   UNL     1     -12.309  13.581  70.679  0.00  0.00    +0.000 C 
ENDBRANCH  20  21
ENDBRANCH  10  20
TORSDOF 4
ENDMDL
MODEL 5
REMARK VINA RESULT:      -5.9      3.915      6.498
REMARK  Name = 
REMARK  4 active torsions:
REMARK  status: ('A' for Active; 'I' for Inactive)
REMARK    1  A    between atoms: O_2  and  C_3
REMARK    2  A    between atoms: C_8  and  O_9
REMARK    3  A    between atoms: C_15  and  C_16
REMARK    4  A    between atoms: C_16  and  C_17
REMARK                            x       y       z     vdW  Elec       q    Type
REMARK                         _______ _______ _______ _____ _____    ______ ____
ROOT
ATOM      1  C   UNL     1      -9.729   8.677  71.663  0.00  0.00    +0.172 A 
ATOM      2  C   UNL     1     -11.111   8.818  71.774  0.00  0.00    +0.172 A 
ATOM      3  C   UNL     1     -11.712   9.807  71.001  0.00  0.00    +0.037 A 
ATOM      4  C   UNL     1     -10.982  10.298  69.946  0.00  0.00    -0.008 A 
ATOM      5  C   UNL     1     -11.824  11.316  68.973  0.00  0.00    +0.087 C 
ATOM      6  N   UNL     1     -11.414  10.609  67.596  0.00  0.00    -0.269 NA
ATOM      7  C   UNL     1     -10.960   9.314  67.826  0.00  0.00    +0.077 C 
ATOM      8  C   UNL     1      -9.487   9.546  68.191  0.00  0.00    +0.044 C 
ATOM      9  C   UNL     1     -10.531  11.428  66.891  0.00  0.00    +0.080 C 
ATOM     10  C   UNL     1     -11.489  12.737  66.538  0.00  0.00    +0.074 C 
ATOM     11  C   UNL     1     -11.116  13.443  67.966  0.00  0.00    +0.153 C 
ATOM     12  O   UNL     1     -12.024  14.201  68.239  0.00  0.00    -0.296 OA
ATOM     13  C   UNL     1     -10.566  12.434  68.938  0.00  0.00    +0.085 C 
ATOM     14  C   UNL     1      -9.710   9.999  69.617  0.00  0.00    -0.020 A 
ATOM     15  C   UNL     1      -9.056   9.217  70.570  0.00  0.00    +0.036 A 
ENDROOT
BRANCH   1  17
ATOM     16  C   UNL     1      -8.670   8.165  73.703  0.00  0.00    +0.253 C 
ATOM     17  O   UNL     1      -9.082   7.930  72.647  0.00  0.00    -0.468 OA
ENDBRANCH   1  17
BRANCH   2  18
ATOM     18  O   UNL     1     -11.823   7.697  72.221  0.00  0.00    -0.468 OA
ATOM     19  C   UNL     1     -12.121   6.599  71.387  0.00  0.00    +0.253 C 
ENDBRANCH   2  18
BRANCH  10  20
ATOM     20  C   UNL     1     -10.274  13.486  65.693  0.00  0.00    +0.009 C 
BRANCH  20  21
ATOM     21  C   UNL     1     -10.875  14.446  64.750  0.00  0.00    +0.000 C 
ATOM     22  C   UNL     1     -10.591  15.853  65.273  0.00  0.00    +0.000 C 
ATOM     23  C   UNL     1     -12.352  14.359  64.580  0.00  0.00    +0.000 C 
ENDBRANCH  20  21
ENDBRANCH  10  20
TORSDOF 4
ENDMDL
MODEL 6
REMARK VINA RESULT:      -5.9      1.607      2.074
REMARK  Name = 
REMARK  4 active torsions:
REMARK  status: ('A' for Active; 'I' for Inactive)
REMARK    1  A    between atoms: O_2  and  C_3
REMARK    2  A    between atoms: C_8  and  O_9
REMARK    3  A    between atoms: C_15  and  C_16
REMARK    4  A    between atoms: C_16  and  C_17
REMARK                            x       y       z     vdW  Elec       q    Type
REMARK                         _______ _______ _______ _____ _____    ______ ____
ROOT
ATOM      1  C   UNL     1     -11.572  14.204  69.472  0.00  0.00    +0.172 A 
ATOM      2  C   UNL     1     -11.838  14.002  68.120  0.00  0.00    +0.172 A 
ATOM      3  C   UNL     1     -11.506  15.034  67.247  0.00  0.00    +0.037 A 
ATOM      4  C   UNL     1     -10.628  15.982  67.714  0.00  0.00    -0.008 A 
ATOM      5  C   UNL     1     -10.139  17.053  66.571  0.00  0.00    +0.087 C 
ATOM      6  N   UNL     1      -8.574  16.929  66.886  0.00  0.00    -0.269 NA
ATOM      7  C   UNL     1      -8.305  15.759  67.587  0.00  0.00    +0.077 C 
ATOM      8  C   UNL     1      -8.604  16.171  69.036  0.00  0.00    +0.044 C 
ATOM      9  C   UNL     1      -8.123  18.101  67.497  0.00  0.00    +0.080 C 
ATOM     10  C   UNL     1      -8.323  19.217  66.284  0.00  0.00    +0.074 C 
ATOM     11  C   UNL     1      -9.870  19.490  66.739  0.00  0.00    +0.153 C 
ATOM     12  O   UNL     1     -10.462  19.906  65.764  0.00  0.00    -0.296 OA
ATOM     13  C   UNL     1     -10.386  18.365  67.596  0.00  0.00    +0.085 C 
ATOM     14  C   UNL     1     -10.112  16.084  68.954  0.00  0.00    -0.020 A 
ATOM     15  C   UNL     1     -10.680  15.197  69.869  0.00  0.00    +0.036 A 
ENDROOT
BRANCH   1  17
ATOM     16  C   UNL     1     -12.829  13.483  71.329  0.00  0.00    +0.253 C 
ATOM     17  O   UNL     1     -12.181  13.338  70.381  0.00  0.00    -0.468 OA
ENDBRANCH   1  17
BRANCH   2  18
ATOM     18  O   UNL     1     -11.930  12.672  67.689  0.00  0.00    -0.468 OA
ATOM     19  C   UNL     1     -10.798  11.896  67.361  0.00  0.00    +0.253 C 
ENDBRANCH   2  18
BRANCH  10  20
ATOM     20  C   UNL     1      -7.690  20.439  67.209  0.00  0.00    +0.009 C 
BRANCH  20  21
ATOM     21  C   UNL     1      -6.460  20.932  66.565  0.00  0.00    +0.000 C 
ATOM     22  C   UNL     1      -6.429  20.385  65.139  0.00  0.00    +0.000 C 
ATOM     23  C   UNL     1      -5.177  20.513  67.196  0.00  0.00    +0.000 C 
ENDBRANCH  20  21
ENDBRANCH  10  20
TORSDOF 4
ENDMDL
MODEL 7
REMARK VINA RESULT:      -5.9      1.837      3.388
REMARK  Name = 
REMARK  4 active torsions:
REMARK  status: ('A' for Active; 'I' for Inactive)
REMARK    1  A    between atoms: O_2  and  C_3
REMARK    2  A    between atoms: C_8  and  O_9
REMARK    3  A    between atoms: C_15  and  C_16
REMARK    4  A    between atoms: C_16  and  C_17
REMARK                            x       y       z     vdW  Elec       q    Type
REMARK                         _______ _______ _______ _____ _____    ______ ____
ROOT
ATOM      1  C   UNL     1     -11.299  14.699  65.310  0.00  0.00    +0.172 A 
ATOM      2  C   UNL     1     -10.916  14.141  66.528  0.00  0.00    +0.172 A 
ATOM      3  C   UNL     1      -9.839  14.728  67.184  0.00  0.00    +0.037 A 
ATOM      4  C   UNL     1      -9.487  15.996  66.787  0.00  0.00    -0.008 A 
ATOM      5  C   UNL     1      -8.339  16.692  67.730  0.00  0.00    +0.087 C 
ATOM      6  N   UNL     1      -9.112  18.080  67.936  0.00  0.00    -0.269 NA
ATOM      7  C   UNL     1     -10.465  17.935  67.652  0.00  0.00    +0.077 C 
ATOM      8  C   UNL     1     -10.496  18.099  66.125  0.00  0.00    +0.044 C 
ATOM      9  C   UNL     1      -8.463  19.090  67.224  0.00  0.00    +0.080 C 
ATOM     10  C   UNL     1      -7.007  19.183  68.015  0.00  0.00    +0.074 C 
ATOM     11  C   UNL     1      -6.374  18.010  67.067  0.00  0.00    +0.153 C 
ATOM     12  O   UNL     1      -5.467  17.497  67.690  0.00  0.00    -0.296 OA
ATOM     13  C   UNL     1      -7.461  17.217  66.393  0.00  0.00    +0.085 C 
ATOM     14  C   UNL     1     -10.006  16.712  65.771  0.00  0.00    -0.020 A 
ATOM     15  C   UNL     1     -10.889  15.986  64.970  0.00  0.00    +0.036 A 
ENDROOT
BRANCH   1  17
ATOM     16  C   UNL     1     -12.009  13.003  63.840  0.00  0.00    +0.253 C 
ATOM     17  O   UNL     1     -12.145  13.944  64.498  0.00  0.00    -0.468 OA
ENDBRANCH   1  17
BRANCH   2  18
ATOM     18  O   UNL     1     -11.893  13.412  67.219  0.00  0.00    -0.468 OA
ATOM     19  C   UNL     1     -11.636  12.152  67.799  0.00  0.00    +0.253 C 
ENDBRANCH   2  18
BRANCH  10  20
ATOM     20  C   UNL     1      -6.486  20.432  67.055  0.00  0.00    +0.009 C 
BRANCH  20  21
ATOM     21  C   UNL     1      -5.474  21.206  67.794  0.00  0.00    +0.000 C 
ATOM     22  C   UNL     1      -4.118  20.945  67.139  0.00  0.00    +0.000 C 
ATOM     23  C   UNL     1      -5.309  20.864  69.235  0.00  0.00    +0.000 C 
ENDBRANCH  20  21
ENDBRANCH  10  20
TORSDOF 4
ENDMDL
MODEL 8
REMARK VINA RESULT:      -5.7      2.129      7.284
REMARK  Name = 
REMARK  4 active torsions:
REMARK  status: ('A' for Active; 'I' for Inactive)
REMARK    1  A    between atoms: O_2  and  C_3
REMARK    2  A    between atoms: C_8  and  O_9
REMARK    3  A    between atoms: C_15  and  C_16
REMARK    4  A    between atoms: C_16  and  C_17
REMARK                            x       y       z     vdW  Elec       q    Type
REMARK                         _______ _______ _______ _____ _____    ______ ____
ROOT
ATOM      1  C   UNL     1      -7.070  19.655  66.741  0.00  0.00    +0.172 A 
ATOM      2  C   UNL     1      -6.870  19.538  68.115  0.00  0.00    +0.172 A 
ATOM      3  C   UNL     1      -7.743  18.711  68.815  0.00  0.00    +0.037 A 
ATOM      4  C   UNL     1      -8.471  17.810  68.075  0.00  0.00    -0.008 A 
ATOM      5  C   UNL     1      -9.331  16.747  68.982  0.00  0.00    +0.087 C 
ATOM      6  N   UNL     1      -8.846  15.434  68.203  0.00  0.00    -0.269 NA
ATOM      7  C   UNL     1      -7.683  15.691  67.486  0.00  0.00    +0.077 C 
ATOM      8  C   UNL     1      -8.230  16.306  66.189  0.00  0.00    +0.044 C 
ATOM      9  C   UNL     1      -9.902  14.916  67.452  0.00  0.00    +0.080 C 
ATOM     10  C   UNL     1     -10.969  14.454  68.637  0.00  0.00    +0.074 C 
ATOM     11  C   UNL     1     -11.634  15.948  68.674  0.00  0.00    +0.153 C 
ATOM     12  O   UNL     1     -12.132  16.092  69.772  0.00  0.00    -0.296 OA
ATOM     13  C   UNL     1     -10.715  16.962  68.048  0.00  0.00    +0.085 C 
ATOM     14  C   UNL     1      -8.509  17.689  66.734  0.00  0.00    -0.020 A 
ATOM     15  C   UNL     1      -7.835  18.710  66.062  0.00  0.00    +0.036 A 
ENDROOT
BRANCH   1  17
ATOM     16  C   UNL     1      -5.764  20.789  65.143  0.00  0.00    +0.253 C 
ATOM     17  O   UNL     1      -6.427  20.707  66.088  0.00  0.00    -0.468 OA
ENDBRANCH   1  17
BRANCH   2  18
ATOM     18  O   UNL     1      -5.582  19.820  68.589  0.00  0.00    -0.468 OA
ATOM     19  C   UNL     1      -5.314  20.870  69.493  0.00  0.00    +0.253 C 
ENDBRANCH   2  18
BRANCH  10  20
ATOM     20  C   UNL     1     -12.046  13.851  67.529  0.00  0.00    +0.009 C 
BRANCH  20  21
ATOM     21  C   UNL     1     -11.373  12.810  66.732  0.00  0.00    +0.000 C 
ATOM     22  C   UNL     1     -12.146  12.652  65.424  0.00  0.00    +0.000 C 
ATOM     23  C   UNL     1     -11.314  11.453  67.344  0.00  0.00    +0.000 C 
ENDBRANCH  20  21
ENDBRANCH  10  20
TORSDOF 4
ENDMDL
MODEL 9
REMARK VINA RESULT:      -5.7      3.437      8.468
REMARK  Name = 
REMARK  4 active torsions:
REMARK  status: ('A' for Active; 'I' for Inactive)
REMARK    1  A    between atoms: O_2  and  C_3
REMARK    2  A    between atoms: C_8  and  O_9
REMARK    3  A    between atoms: C_15  and  C_16
REMARK    4  A    between atoms: C_16  and  C_17
REMARK                            x       y       z     vdW  Elec       q    Type
REMARK                         _______ _______ _______ _____ _____    ______ ____
ROOT
ATOM      1  C   UNL     1     -11.708  13.451  66.678  0.00  0.00    +0.172 A 
ATOM      2  C   UNL     1     -11.479  14.161  67.855  0.00  0.00    +0.172 A 
ATOM      3  C   UNL     1     -11.668  13.481  69.054  0.00  0.00    +0.037 A 
ATOM      4  C   UNL     1     -11.696  12.109  68.990  0.00  0.00    -0.008 A 
ATOM      5  C   UNL     1     -11.730  11.377  70.458  0.00  0.00    +0.087 C 
ATOM      6  N   UNL     1     -10.545  10.343  70.157  0.00  0.00    -0.269 NA
ATOM      7  C   UNL     1      -9.778  10.776  69.080  0.00  0.00    +0.077 C 
ATOM      8  C   UNL     1     -10.585  10.262  67.879  0.00  0.00    +0.044 C 
ATOM      9  C   UNL     1     -11.065   9.054  70.031  0.00  0.00    +0.080 C 
ATOM     10  C   UNL     1     -11.631   8.765  71.565  0.00  0.00    +0.074 C 
ATOM     11  C   UNL     1     -13.069   9.457  71.207  0.00  0.00    +0.153 C 
ATOM     12  O   UNL     1     -13.552   9.841  72.252  0.00  0.00    -0.296 OA
ATOM     13  C   UNL     1     -12.957  10.327  69.984  0.00  0.00    +0.085 C 
ATOM     14  C   UNL     1     -11.650  11.337  67.888  0.00  0.00    -0.020 A 
ATOM     15  C   UNL     1     -11.737  12.058  66.697  0.00  0.00    +0.036 A 
ENDROOT
BRANCH   1  17
ATOM     16  C   UNL     1     -12.349  13.999  64.480  0.00  0.00    +0.253 C 
ATOM     17  O   UNL     1     -11.838  14.187  65.501  0.00  0.00    -0.468 OA
ENDBRANCH   1  17
BRANCH   2  18
ATOM     18  O   UNL     1     -10.630  15.273  67.762  0.00  0.00    -0.468 OA
ATOM     19  C   UNL     1     -10.878  16.481  68.447  0.00  0.00    +0.253 C 
ENDBRANCH   2  18
BRANCH  10  20
ATOM     20  C   UNL     1     -12.116   7.228  71.171  0.00  0.00    +0.009 C 
BRANCH  20  21
ATOM     21  C   UNL     1     -11.497   6.279  72.112  0.00  0.00    +0.000 C 
ATOM     22  C   UNL     1     -10.752   7.091  73.170  0.00  0.00    +0.000 C 
ATOM     23  C   UNL     1     -10.496   5.340  71.532  0.00  0.00    +0.000 C 
ENDBRANCH  20  21
ENDBRANCH  10  20
TORSDOF 4
ENDMDL
