MODEL 1
REMARK VINA RESULT:      -8.6      0.000      0.000
REMARK  Name = 
REMARK  4 active torsions:
REMARK  status: ('A' for Active; 'I' for Inactive)
REMARK    1  A    between atoms: C_3  and  C_4
REMARK    2  A    between atoms: C_4  and  N_5
REMARK    3  A    between atoms: N_19  and  C_20
REMARK    4  A    between atoms: C_20  and  C_21
REMARK                            x       y       z     vdW  Elec       q    Type
REMARK                         _______ _______ _______ _____ _____    ______ ____
ROOT
ATOM      1  N   UNL     1      -7.584  15.591  67.316  0.00  0.00    -0.282 N 
ATOM      2  C   UNL     1      -8.643  14.814  67.046  0.00  0.00    +0.154 A 
ATOM      3  C   UNL     1      -9.041  13.526  67.386  0.00  0.00    +0.284 A 
ATOM      4  N   UNL     1     -10.167  12.990  66.879  0.00  0.00    -0.240 N 
ATOM      5  C   UNL     1     -10.792  13.646  65.900  0.00  0.00    +0.335 A 
ATOM      6  N   UNL     1     -10.479  14.904  65.583  0.00  0.00    -0.263 N 
ATOM      7  C   UNL     1     -11.263  15.699  64.663  0.00  0.00    +0.137 C 
ATOM      8  O   UNL     1     -11.580  13.010  65.149  0.00  0.00    -0.246 OA
ATOM      9  O   UNL     1      -8.281  12.853  68.144  0.00  0.00    -0.265 OA
ATOM     10  C   UNL     1      -9.419  15.506  66.152  0.00  0.00    +0.171 A 
ATOM     11  N   UNL     1      -8.604  16.468  65.653  0.00  0.00    -0.196 NA
ATOM     12  C   UNL     1      -7.625  16.708  66.548  0.00  0.00    +0.203 A 
ATOM     13  N   UNL     1      -6.983  17.966  66.795  0.00  0.00    -0.278 N 
ATOM     14  C   UNL     1      -6.969  18.606  68.043  0.00  0.00    +0.112 C 
ATOM     15  C   UNL     1      -7.825  20.001  67.990  0.00  0.00    +0.112 C 
ATOM     16  N   UNL     1      -8.832  19.491  66.894  0.00  0.00    -0.131 NA
ATOM     17  C   UNL     1      -6.802  20.696  66.918  0.00  0.00    +0.023 C 
ATOM     18  C   UNL     1      -6.833  20.004  65.630  0.00  0.00    +0.023 C 
ATOM     19  C   UNL     1      -6.324  18.587  65.653  0.00  0.00    +0.094 C 
ENDROOT
BRANCH   1  20
ATOM     20  C   UNL     1      -6.759  15.422  68.486  0.00  0.00    +0.185 C 
BRANCH  20  23
ATOM     21  C   UNL     1      -3.240  14.197  67.834  0.00  0.00    +0.090 C 
ATOM     22  C   UNL     1      -4.274  14.508  68.018  0.00  0.00    -0.088 C 
ATOM     23  C   UNL     1      -5.396  14.968  68.144  0.00  0.00    -0.066 C 
ENDBRANCH  20  23
ENDBRANCH   1  20
BRANCH   4  24
ATOM     24  C   UNL     1     -10.789  11.886  67.551  0.00  0.00    +0.179 C 
BRANCH  24  25
ATOM     25  C   UNL     1     -11.624  12.275  68.702  0.00  0.00    +0.162 A 
ATOM     26  N   UNL     1     -11.453  13.537  69.170  0.00  0.00    -0.229 NA
ATOM     27  C   UNL     1     -12.184  13.935  70.238  0.00  0.00    +0.084 A 
ATOM     28  C   UNL     1     -12.721  12.955  71.062  0.00  0.00    +0.031 A 
ATOM     29  C   UNL     1     -13.572  13.312  72.098  0.00  0.00    +0.003 A 
ATOM     30  C   UNL     1     -13.819  14.645  72.400  0.00  0.00    +0.000 A 
ATOM     31  C   UNL     1     -13.087  15.582  71.684  0.00  0.00    +0.002 A 
ATOM     32  C   UNL     1     -12.446  11.633  70.807  0.00  0.00    +0.062 A 
ATOM     33  C   UNL     1     -12.957  10.564  71.714  0.00  0.00    +0.052 C 
ATOM     34  C   UNL     1     -12.397  15.260  70.546  0.00  0.00    +0.019 A 
ATOM     35  N   UNL     1     -11.785  11.340  69.672  0.00  0.00    -0.233 NA
ENDBRANCH  24  25
ENDBRANCH   4  24
TORSDOF 4
ENDMDL
MODEL 2
REMARK VINA RESULT:      -8.4      3.153      5.614
REMARK  Name = 
REMARK  4 active torsions:
REMARK  status: ('A' for Active; 'I' for Inactive)
REMARK    1  A    between atoms: C_3  and  C_4
REMARK    2  A    between atoms: C_4  and  N_5
REMARK    3  A    between atoms: N_19  and  C_20
REMARK    4  A    between atoms: C_20  and  C_21
REMARK                            x       y       z     vdW  Elec       q    Type
REMARK                         _______ _______ _______ _____ _____    ______ ____
ROOT
ATOM      1  N   UNL     1     -10.834  13.575  67.416  0.00  0.00    -0.282 N 
ATOM      2  C   UNL     1     -11.331  13.011  68.527  0.00  0.00    +0.154 A 
ATOM      3  C   UNL     1     -11.841  11.762  68.862  0.00  0.00    +0.284 A 
ATOM      4  N   UNL     1     -12.342  11.523  70.089  0.00  0.00    -0.240 N 
ATOM      5  C   UNL     1     -12.512  12.558  70.913  0.00  0.00    +0.335 A 
ATOM      6  N   UNL     1     -11.988  13.758  70.655  0.00  0.00    -0.263 N 
ATOM      7  C   UNL     1     -11.993  14.839  71.616  0.00  0.00    +0.137 C 
ATOM      8  O   UNL     1     -13.323  12.444  71.872  0.00  0.00    -0.246 OA
ATOM      9  O   UNL     1     -11.870  10.874  67.960  0.00  0.00    -0.265 OA
ATOM     10  C   UNL     1     -11.386  13.998  69.476  0.00  0.00    +0.171 A 
ATOM     11  N   UNL     1     -11.286  15.159  68.781  0.00  0.00    -0.196 NA
ATOM     12  C   UNL     1     -10.664  14.906  67.612  0.00  0.00    +0.203 A 
ATOM     13  N   UNL     1      -9.790  15.793  66.900  0.00  0.00    -0.278 N 
ATOM     14  C   UNL     1      -8.461  15.487  66.575  0.00  0.00    +0.112 C 
ATOM     15  C   UNL     1      -7.426  16.462  67.386  0.00  0.00    +0.112 C 
ATOM     16  N   UNL     1      -8.365  16.634  68.637  0.00  0.00    -0.131 NA
ATOM     17  C   UNL     1      -7.961  17.812  66.632  0.00  0.00    +0.023 C 
ATOM     18  C   UNL     1      -9.351  18.102  66.983  0.00  0.00    +0.023 C 
ATOM     19  C   UNL     1     -10.354  17.081  66.517  0.00  0.00    +0.094 C 
ENDROOT
BRANCH   1  20
ATOM     20  C   UNL     1     -10.247  12.816  66.340  0.00  0.00    +0.185 C 
BRANCH  20  23
ATOM     21  C   UNL     1     -12.504  12.155  63.378  0.00  0.00    +0.090 C 
ATOM     22  C   UNL     1     -11.866  12.307  64.254  0.00  0.00    -0.088 C 
ATOM     23  C   UNL     1     -11.191  12.612  65.223  0.00  0.00    -0.066 C 
ENDBRANCH  20  23
ENDBRANCH   1  20
BRANCH   4  24
ATOM     24  C   UNL     1     -12.444  10.172  70.558  0.00  0.00    +0.179 C 
BRANCH  24  25
ATOM     25  C   UNL     1     -11.221   9.665  71.205  0.00  0.00    +0.162 A 
ATOM     26  N   UNL     1     -10.111   9.603  70.427  0.00  0.00    -0.229 NA
ATOM     27  C   UNL     1      -8.966   9.126  70.971  0.00  0.00    +0.084 A 
ATOM     28  C   UNL     1      -9.065   8.330  72.103  0.00  0.00    +0.031 A 
ATOM     29  C   UNL     1      -7.915   7.916  72.761  0.00  0.00    +0.003 A 
ATOM     30  C   UNL     1      -6.655   8.192  72.249  0.00  0.00    +0.000 A 
ATOM     31  C   UNL     1      -6.618   8.802  71.003  0.00  0.00    +0.002 A 
ATOM     32  C   UNL     1     -10.307   8.005  72.595  0.00  0.00    +0.062 A 
ATOM     33  C   UNL     1     -10.443   7.099  73.773  0.00  0.00    +0.052 C 
ATOM     34  C   UNL     1      -7.722   9.380  70.437  0.00  0.00    +0.019 A 
ATOM     35  N   UNL     1     -11.375   8.603  72.036  0.00  0.00    -0.233 NA
ENDBRANCH  24  25
ENDBRANCH   4  24
TORSDOF 4
ENDMDL
MODEL 3
REMARK VINA RESULT:      -8.4      2.897      8.008
REMARK  Name = 
REMARK  4 active torsions:
REMARK  status: ('A' for Active; 'I' for Inactive)
REMARK    1  A    between atoms: C_3  and  C_4
REMARK    2  A    between atoms: C_4  and  N_5
REMARK    3  A    between atoms: N_19  and  C_20
REMARK    4  A    between atoms: C_20  and  C_21
REMARK                            x       y       z     vdW  Elec       q    Type
REMARK                         _______ _______ _______ _____ _____    ______ ____
ROOT
ATOM      1  N   UNL     1     -11.059  10.365  69.004  0.00  0.00    -0.282 N 
ATOM      2  C   UNL     1     -11.282  11.590  68.505  0.00  0.00    +0.154 A 
ATOM      3  C   UNL     1     -11.754  12.795  69.010  0.00  0.00    +0.284 A 
ATOM      4  N   UNL     1     -11.934  13.861  68.207  0.00  0.00    -0.240 N 
ATOM      5  C   UNL     1     -11.830  13.683  66.890  0.00  0.00    +0.335 A 
ATOM      6  N   UNL     1     -11.327  12.563  66.368  0.00  0.00    -0.263 N 
ATOM      7  C   UNL     1     -11.025  12.420  64.959  0.00  0.00    +0.137 C 
ATOM      8  O   UNL     1     -12.371  14.521  66.118  0.00  0.00    -0.246 OA
ATOM      9  O   UNL     1     -12.063  12.843  70.237  0.00  0.00    -0.265 OA
ATOM     10  C   UNL     1     -11.037  11.514  67.158  0.00  0.00    +0.171 A 
ATOM     11  N   UNL     1     -11.057  10.188  66.873  0.00  0.00    -0.196 NA
ATOM     12  C   UNL     1     -10.772   9.503  67.998  0.00  0.00    +0.203 A 
ATOM     13  N   UNL     1     -10.065   8.258  68.084  0.00  0.00    -0.278 N 
ATOM     14  C   UNL     1      -8.883   8.079  68.816  0.00  0.00    +0.112 C 
ATOM     15  C   UNL     1      -7.623   7.768  67.819  0.00  0.00    +0.112 C 
ATOM     16  N   UNL     1      -8.197   8.611  66.621  0.00  0.00    -0.131 NA
ATOM     17  C   UNL     1      -8.260   6.353  67.302  0.00  0.00    +0.023 C 
ATOM     18  C   UNL     1      -9.495   6.570  66.548  0.00  0.00    +0.023 C 
ATOM     19  C   UNL     1     -10.638   7.141  67.344  0.00  0.00    +0.094 C 
ENDROOT
BRANCH   1  20
ATOM     20  C   UNL     1     -10.810  10.116  70.403  0.00  0.00    +0.185 C 
BRANCH  20  23
ATOM     21  C   UNL     1     -13.830   8.926  72.345  0.00  0.00    +0.090 C 
ATOM     22  C   UNL     1     -12.982   9.304  71.764  0.00  0.00    -0.088 C 
ATOM     23  C   UNL     1     -12.004   9.590  71.094  0.00  0.00    -0.066 C 
ENDBRANCH  20  23
ENDBRANCH   1  20
BRANCH   4  24
ATOM     24  C   UNL     1     -11.985  15.175  68.779  0.00  0.00    +0.179 C 
BRANCH  24  25
ATOM     25  C   UNL     1     -10.805  16.008  68.482  0.00  0.00    +0.162 A 
ATOM     26  N   UNL     1      -9.669  15.702  69.158  0.00  0.00    -0.229 NA
ATOM     27  C   UNL     1      -8.563  16.451  68.934  0.00  0.00    +0.084 A 
ATOM     28  C   UNL     1      -8.732  17.720  68.397  0.00  0.00    +0.031 A 
ATOM     29  C   UNL     1      -7.623  18.475  68.043  0.00  0.00    +0.003 A 
ATOM     30  C   UNL     1      -6.335  18.033  68.312  0.00  0.00    +0.000 A 
ATOM     31  C   UNL     1      -6.230  16.858  69.045  0.00  0.00    +0.002 A 
ATOM     32  C   UNL     1     -10.003  18.194  68.171  0.00  0.00    +0.062 A 
ATOM     33  C   UNL     1     -10.214  19.578  67.655  0.00  0.00    +0.052 C 
ATOM     34  C   UNL     1      -7.291  16.015  69.233  0.00  0.00    +0.019 A 
ATOM     35  N   UNL     1     -11.027  17.339  68.344  0.00  0.00    -0.233 NA
ENDBRANCH  24  25
ENDBRANCH   4  24
TORSDOF 4
ENDMDL
MODEL 4
REMARK VINA RESULT:      -8.3      2.868      7.864
REMARK  Name = 
REMARK  4 active torsions:
REMARK  status: ('A' for Active; 'I' for Inactive)
REMARK    1  A    between atoms: C_3  and  C_4
REMARK    2  A    between atoms: C_4  and  N_5
REMARK    3  A    between atoms: N_19  and  C_20
REMARK    4  A    between atoms: C_20  and  C_21
REMARK                            x       y       z     vdW  Elec       q    Type
REMARK                         _______ _______ _______ _____ _____    ______ ____
ROOT
ATOM      1  N   UNL     1     -11.105  10.315  69.259  0.00  0.00    -0.282 N 
ATOM      2  C   UNL     1     -11.334  11.572  68.853  0.00  0.00    +0.154 A 
ATOM      3  C   UNL     1     -11.858  12.721  69.434  0.00  0.00    +0.284 A 
ATOM      4  N   UNL     1     -12.026  13.848  68.715  0.00  0.00    -0.240 N 
ATOM      5  C   UNL     1     -11.856  13.784  67.394  0.00  0.00    +0.335 A 
ATOM      6  N   UNL     1     -11.303  12.722  66.805  0.00  0.00    -0.263 N 
ATOM      7  C   UNL     1     -10.933  12.704  65.406  0.00  0.00    +0.137 C 
ATOM      8  O   UNL     1     -12.381  14.673  66.670  0.00  0.00    -0.246 OA
ATOM      9  O   UNL     1     -12.225  12.659  70.644  0.00  0.00    -0.265 OA
ATOM     10  C   UNL     1     -11.025  11.616  67.519  0.00  0.00    +0.171 A 
ATOM     11  N   UNL     1     -11.000  10.319  67.123  0.00  0.00    -0.196 NA
ATOM     12  C   UNL     1     -10.752   9.546  68.199  0.00  0.00    +0.203 A 
ATOM     13  N   UNL     1     -10.020   8.313  68.214  0.00  0.00    -0.278 N 
ATOM     14  C   UNL     1      -8.869   8.096  68.986  0.00  0.00    +0.112 C 
ATOM     15  C   UNL     1      -7.557   7.896  68.028  0.00  0.00    +0.112 C 
ATOM     16  N   UNL     1      -8.095   8.826  66.878  0.00  0.00    -0.131 NA
ATOM     17  C   UNL     1      -8.136   6.517  67.365  0.00  0.00    +0.023 C 
ATOM     18  C   UNL     1      -9.339   6.772  66.573  0.00  0.00    +0.023 C 
ATOM     19  C   UNL     1     -10.531   7.251  67.358  0.00  0.00    +0.094 C 
ENDROOT
BRANCH   1  20
ATOM     20  C   UNL     1     -10.916   9.953  70.642  0.00  0.00    +0.185 C 
BRANCH  20  23
ATOM     21  C   UNL     1     -14.143   8.668  72.140  0.00  0.00    +0.090 C 
ATOM     22  C   UNL     1     -13.226   9.032  71.664  0.00  0.00    -0.088 C 
ATOM     23  C   UNL     1     -12.135   9.369  71.236  0.00  0.00    -0.066 C 
ENDBRANCH  20  23
ENDBRANCH   1  20
BRANCH   4  24
ATOM     24  C   UNL     1     -12.134  15.107  69.392  0.00  0.00    +0.179 C 
BRANCH  24  25
ATOM     25  C   UNL     1     -10.940  15.963  69.268  0.00  0.00    +0.162 A 
ATOM     26  N   UNL     1     -11.056  17.041  68.452  0.00  0.00    -0.229 NA
ATOM     27  C   UNL     1      -9.979  17.847  68.291  0.00  0.00    +0.084 A 
ATOM     28  C   UNL     1      -8.726  17.327  68.582  0.00  0.00    +0.031 A 
ATOM     29  C   UNL     1      -7.609  18.149  68.543  0.00  0.00    +0.003 A 
ATOM     30  C   UNL     1      -7.700  19.466  68.114  0.00  0.00    +0.000 A 
ATOM     31  C   UNL     1      -8.936  19.871  67.629  0.00  0.00    +0.002 A 
ATOM     32  C   UNL     1      -8.612  16.010  68.960  0.00  0.00    +0.062 A 
ATOM     33  C   UNL     1      -7.270  15.409  69.216  0.00  0.00    +0.052 C 
ATOM     34  C   UNL     1     -10.077  19.142  67.835  0.00  0.00    +0.019 A 
ATOM     35  N   UNL     1      -9.748  15.322  69.176  0.00  0.00    -0.233 NA
ENDBRANCH  24  25
ENDBRANCH   4  24
TORSDOF 4
ENDMDL
MODEL 5
REMARK VINA RESULT:      -8.2      2.472      3.518
REMARK  Name = 
REMARK  4 active torsions:
REMARK  status: ('A' for Active; 'I' for Inactive)
REMARK    1  A    between atoms: C_3  and  C_4
REMARK    2  A    between atoms: C_4  and  N_5
REMARK    3  A    between atoms: N_19  and  C_20
REMARK    4  A    between atoms: C_20  and  C_21
REMARK                            x       y       z     vdW  Elec       q    Type
REMARK                         _______ _______ _______ _____ _____    ______ ____
ROOT
ATOM      1  N   UNL     1      -6.328  17.454  67.992  0.00  0.00    -0.282 N 
ATOM      2  C   UNL     1      -7.555  17.447  67.449  0.00  0.00    +0.154 A 
ATOM      3  C   UNL     1      -8.337  16.513  66.781  0.00  0.00    +0.284 A 
ATOM      4  N   UNL     1      -9.543  16.847  66.282  0.00  0.00    -0.240 N 
ATOM      5  C   UNL     1      -9.888  18.135  66.277  0.00  0.00    +0.335 A 
ATOM      6  N   UNL     1      -9.196  19.053  66.954  0.00  0.00    -0.263 N 
ATOM      7  C   UNL     1      -9.654  20.415  67.122  0.00  0.00    +0.137 C 
ATOM      8  O   UNL     1     -10.788  18.520  65.481  0.00  0.00    -0.246 OA
ATOM      9  O   UNL     1      -7.857  15.354  66.607  0.00  0.00    -0.265 OA
ATOM     10  C   UNL     1      -8.037  18.726  67.555  0.00  0.00    +0.171 A 
ATOM     11  N   UNL     1      -6.945  19.493  67.797  0.00  0.00    -0.196 NA
ATOM     12  C   UNL     1      -5.991  18.718  68.349  0.00  0.00    +0.203 A 
ATOM     13  N   UNL     1      -5.015  19.125  69.319  0.00  0.00    -0.278 N 
ATOM     14  C   UNL     1      -4.879  18.538  70.585  0.00  0.00    +0.112 C 
ATOM     15  C   UNL     1      -5.274  19.602  71.764  0.00  0.00    +0.112 C 
ATOM     16  N   UNL     1      -6.326  20.380  70.889  0.00  0.00    -0.131 NA
ATOM     17  C   UNL     1      -4.033  20.606  71.402  0.00  0.00    +0.023 C 
ATOM     18  C   UNL     1      -4.198  21.197  70.075  0.00  0.00    +0.023 C 
ATOM     19  C   UNL     1      -4.140  20.222  68.929  0.00  0.00    +0.094 C 
ENDROOT
BRANCH   1  20
ATOM     20  C   UNL     1      -5.657  16.261  68.443  0.00  0.00    +0.185 C 
BRANCH  20  23
ATOM     21  C   UNL     1      -2.383  15.943  66.576  0.00  0.00    +0.090 C 
ATOM     22  C   UNL     1      -3.310  16.065  67.145  0.00  0.00    -0.088 C 
ATOM     23  C   UNL     1      -4.361  16.062  67.764  0.00  0.00    -0.066 C 
ENDBRANCH  20  23
ENDBRANCH   1  20
BRANCH   4  24
ATOM     24  C   UNL     1     -10.502  15.818  66.006  0.00  0.00    +0.179 C 
BRANCH  24  25
ATOM     25  C   UNL     1     -11.107  15.219  67.209  0.00  0.00    +0.162 A 
ATOM     26  N   UNL     1     -10.932  15.898  68.371  0.00  0.00    -0.229 NA
ATOM     27  C   UNL     1     -11.453  15.378  69.508  0.00  0.00    +0.084 A 
ATOM     28  C   UNL     1     -11.735  14.019  69.534  0.00  0.00    +0.031 A 
ATOM     29  C   UNL     1     -12.377  13.466  70.633  0.00  0.00    +0.003 A 
ATOM     30  C   UNL     1     -12.649  14.225  71.764  0.00  0.00    +0.000 A 
ATOM     31  C   UNL     1     -12.151  15.520  71.769  0.00  0.00    +0.002 A 
ATOM     32  C   UNL     1     -11.426  13.244  68.442  0.00  0.00    +0.062 A 
ATOM     33  C   UNL     1     -11.661  11.770  68.467  0.00  0.00    +0.052 C 
ATOM     34  C   UNL     1     -11.691  16.133  70.635  0.00  0.00    +0.019 A 
ATOM     35  N   UNL     1     -10.995  13.872  67.332  0.00  0.00    -0.233 NA
ENDBRANCH  24  25
ENDBRANCH   4  24
TORSDOF 4
ENDMDL
MODEL 6
REMARK VINA RESULT:      -8.1      3.608      7.797
REMARK  Name = 
REMARK  4 active torsions:
REMARK  status: ('A' for Active; 'I' for Inactive)
REMARK    1  A    between atoms: C_3  and  C_4
REMARK    2  A    between atoms: C_4  and  N_5
REMARK    3  A    between atoms: N_19  and  C_20
REMARK    4  A    between atoms: C_20  and  C_21
REMARK                            x       y       z     vdW  Elec       q    Type
REMARK                         _______ _______ _______ _____ _____    ______ ____
ROOT
ATOM      1  N   UNL     1     -11.809  12.505  69.534  0.00  0.00    -0.282 N 
ATOM      2  C   UNL     1     -11.519  12.669  68.235  0.00  0.00    +0.154 A 
ATOM      3  C   UNL     1     -11.280  11.823  67.159  0.00  0.00    +0.284 A 
ATOM      4  N   UNL     1     -10.935  12.314  65.953  0.00  0.00    -0.240 N 
ATOM      5  C   UNL     1     -10.644  13.612  65.861  0.00  0.00    +0.335 A 
ATOM      6  N   UNL     1     -10.912  14.466  66.850  0.00  0.00    -0.263 N 
ATOM      7  C   UNL     1     -10.785  15.900  66.704  0.00  0.00    +0.137 C 
ATOM      8  O   UNL     1      -9.949  14.011  64.887  0.00  0.00    -0.246 OA
ATOM      9  O   UNL     1     -11.342  10.574  67.362  0.00  0.00    -0.265 OA
ATOM     10  C   UNL     1     -11.360  14.015  68.036  0.00  0.00    +0.171 A 
ATOM     11  N   UNL     1     -11.185  14.535  69.277  0.00  0.00    -0.196 NA
ATOM     12  C   UNL     1     -11.745  13.699  70.174  0.00  0.00    +0.203 A 
ATOM     13  N   UNL     1     -12.377  14.069  71.407  0.00  0.00    -0.278 N 
ATOM     14  C   UNL     1     -13.709  13.766  71.725  0.00  0.00    +0.112 C 
ATOM     15  C   UNL     1     -14.608  15.130  71.822  0.00  0.00    +0.112 C 
ATOM     16  N   UNL     1     -13.759  15.919  70.756  0.00  0.00    -0.131 NA
ATOM     17  C   UNL     1     -13.771  15.701  73.107  0.00  0.00    +0.023 C 
ATOM     18  C   UNL     1     -12.386  16.002  72.748  0.00  0.00    +0.023 C 
ATOM     19  C   UNL     1     -11.554  14.809  72.355  0.00  0.00    +0.094 C 
ENDROOT
BRANCH   1  20
ATOM     20  C   UNL     1     -12.438  11.318  70.060  0.00  0.00    +0.185 C 
BRANCH  20  23
ATOM     21  C   UNL     1     -10.096   8.793  71.624  0.00  0.00    +0.090 C 
ATOM     22  C   UNL     1     -10.783   9.493  71.138  0.00  0.00    -0.088 C 
ATOM     23  C   UNL     1     -11.454  10.373  70.626  0.00  0.00    -0.066 C 
ENDBRANCH  20  23
ENDBRANCH   1  20
BRANCH   4  24
ATOM     24  C   UNL     1     -11.124  11.507  64.782  0.00  0.00    +0.179 C 
BRANCH  24  25
ATOM     25  C   UNL     1      -9.890  10.877  64.279  0.00  0.00    +0.162 A 
ATOM     26  N   UNL     1      -9.576  11.124  62.982  0.00  0.00    -0.229 NA
ATOM     27  C   UNL     1      -8.461  10.552  62.468  0.00  0.00    +0.084 A 
ATOM     28  C   UNL     1      -7.952   9.429  63.104  0.00  0.00    +0.031 A 
ATOM     29  C   UNL     1      -6.749   8.880  62.683  0.00  0.00    +0.003 A 
ATOM     30  C   UNL     1      -6.090   9.366  61.562  0.00  0.00    +0.000 A 
ATOM     31  C   UNL     1      -6.752  10.347  60.837  0.00  0.00    +0.002 A 
ATOM     32  C   UNL     1      -8.619   8.904  64.185  0.00  0.00    +0.062 A 
ATOM     33  C   UNL     1      -8.128   7.660  64.848  0.00  0.00    +0.052 C 
ATOM     34  C   UNL     1      -7.832  11.024  61.337  0.00  0.00    +0.019 A 
ATOM     35  N   UNL     1      -9.665   9.598  64.671  0.00  0.00    -0.233 NA
ENDBRANCH  24  25
ENDBRANCH   4  24
TORSDOF 4
ENDMDL
MODEL 7
REMARK VINA RESULT:      -8.0      1.672      2.177
REMARK  Name = 
REMARK  4 active torsions:
REMARK  status: ('A' for Active; 'I' for Inactive)
REMARK    1  A    between atoms: C_3  and  C_4
REMARK    2  A    between atoms: C_4  and  N_5
REMARK    3  A    between atoms: N_19  and  C_20
REMARK    4  A    between atoms: C_20  and  C_21
REMARK                            x       y       z     vdW  Elec       q    Type
REMARK                         _______ _______ _______ _____ _____    ______ ____
ROOT
ATOM      1  N   UNL     1      -8.204  15.490  67.056  0.00  0.00    -0.282 N 
ATOM      2  C   UNL     1      -8.908  14.414  66.674  0.00  0.00    +0.154 A 
ATOM      3  C   UNL     1      -8.728  13.038  66.742  0.00  0.00    +0.284 A 
ATOM      4  N   UNL     1      -9.618  12.193  66.185  0.00  0.00    -0.240 N 
ATOM      5  C   UNL     1     -10.571  12.706  65.406  0.00  0.00    +0.335 A 
ATOM      6  N   UNL     1     -10.813  14.017  65.359  0.00  0.00    -0.263 N 
ATOM      7  C   UNL     1     -11.958  14.580  64.676  0.00  0.00    +0.137 C 
ATOM      8  O   UNL     1     -11.146  11.953  64.573  0.00  0.00    -0.246 OA
ATOM      9  O   UNL     1      -7.675  12.604  67.295  0.00  0.00    -0.265 OA
ATOM     10  C   UNL     1     -10.001  14.882  65.993  0.00  0.00    +0.171 A 
ATOM     11  N   UNL     1      -9.695  16.165  65.678  0.00  0.00    -0.196 NA
ATOM     12  C   UNL     1      -8.775  16.614  66.555  0.00  0.00    +0.203 A 
ATOM     13  N   UNL     1      -8.640  17.957  67.040  0.00  0.00    -0.278 N 
ATOM     14  C   UNL     1      -8.708  18.309  68.396  0.00  0.00    +0.112 C 
ATOM     15  C   UNL     1     -10.034  19.222  68.694  0.00  0.00    +0.112 C 
ATOM     16  N   UNL     1     -10.904  18.557  67.563  0.00  0.00    -0.131 NA
ATOM     17  C   UNL     1      -9.512  20.453  67.752  0.00  0.00    +0.023 C 
ATOM     18  C   UNL     1      -9.444  20.056  66.346  0.00  0.00    +0.023 C 
ATOM     19  C   UNL     1      -8.431  18.987  66.032  0.00  0.00    +0.094 C 
ENDROOT
BRANCH   1  20
ATOM     20  C   UNL     1      -7.229  15.460  68.118  0.00  0.00    +0.185 C 
BRANCH  20  23
ATOM     21  C   UNL     1      -3.945  16.847  66.855  0.00  0.00    +0.090 C 
ATOM     22  C   UNL     1      -4.894  16.476  67.255  0.00  0.00    -0.088 C 
ATOM     23  C   UNL     1      -5.905  15.934  67.670  0.00  0.00    -0.066 C 
ENDBRANCH  20  23
ENDBRANCH   1  20
BRANCH   4  24
ATOM     24  C   UNL     1      -9.670  10.830  66.628  0.00  0.00    +0.179 C 
BRANCH  24  25
ATOM     25  C   UNL     1     -10.528  10.612  67.806  0.00  0.00    +0.162 A 
ATOM     26  N   UNL     1     -10.791  11.704  68.568  0.00  0.00    -0.229 NA
ATOM     27  C   UNL     1     -11.559  11.550  69.673  0.00  0.00    +0.084 A 
ATOM     28  C   UNL     1     -11.671  10.279  70.219  0.00  0.00    +0.031 A 
ATOM     29  C   UNL     1     -12.538  10.054  71.278  0.00  0.00    +0.003 A 
ATOM     30  C   UNL     1     -13.225  11.100  71.881  0.00  0.00    +0.000 A 
ATOM     31  C   UNL     1     -12.911  12.377  71.437  0.00  0.00    +0.002 A 
ATOM     32  C   UNL     1     -10.959   9.242  69.665  0.00  0.00    +0.062 A 
ATOM     33  C   UNL     1     -11.011   7.878  70.271  0.00  0.00    +0.052 C 
ATOM     34  C   UNL     1     -12.211  12.600  70.282  0.00  0.00    +0.019 A 
ATOM     35  N   UNL     1     -10.297   9.481  68.518  0.00  0.00    -0.233 NA
ENDBRANCH  24  25
ENDBRANCH   4  24
TORSDOF 4
ENDMDL
MODEL 8
REMARK VINA RESULT:      -8.0      2.988      4.958
REMARK  Name = 
REMARK  4 active torsions:
REMARK  status: ('A' for Active; 'I' for Inactive)
REMARK    1  A    between atoms: C_3  and  C_4
REMARK    2  A    between atoms: C_4  and  N_5
REMARK    3  A    between atoms: N_19  and  C_20
REMARK    4  A    between atoms: C_20  and  C_21
REMARK                            x       y       z     vdW  Elec       q    Type
REMARK                         _______ _______ _______ _____ _____    ______ ____
ROOT
ATOM      1  N   UNL     1     -10.982  14.445  67.316  0.00  0.00    -0.282 N 
ATOM      2  C   UNL     1     -11.402  13.743  68.379  0.00  0.00    +0.154 A 
ATOM      3  C   UNL     1     -11.932  12.475  68.582  0.00  0.00    +0.284 A 
ATOM      4  N   UNL     1     -12.332  12.077  69.805  0.00  0.00    -0.240 N 
ATOM      5  C   UNL     1     -12.384  12.988  70.778  0.00  0.00    +0.335 A 
ATOM      6  N   UNL     1     -11.835  14.196  70.642  0.00  0.00    -0.263 N 
ATOM      7  C   UNL     1     -11.708  15.128  71.742  0.00  0.00    +0.137 C 
ATOM      8  O   UNL     1     -13.111  12.762  71.783  0.00  0.00    -0.246 OA
ATOM      9  O   UNL     1     -12.079  11.726  67.571  0.00  0.00    -0.265 OA
ATOM     10  C   UNL     1     -11.330  14.585  69.457  0.00  0.00    +0.171 A 
ATOM     11  N   UNL     1     -11.243  15.830  68.925  0.00  0.00    -0.196 NA
ATOM     12  C   UNL     1     -10.739  15.729  67.679  0.00  0.00    +0.203 A 
ATOM     13  N   UNL     1      -9.895  16.683  67.020  0.00  0.00    -0.278 N 
ATOM     14  C   UNL     1      -8.614  16.388  66.531  0.00  0.00    +0.112 C 
ATOM     15  C   UNL     1      -7.470  17.205  67.370  0.00  0.00    +0.112 C 
ATOM     16  N   UNL     1      -8.286  17.224  68.715  0.00  0.00    -0.131 NA
ATOM     17  C   UNL     1      -8.012  18.665  66.866  0.00  0.00    +0.023 C 
ATOM     18  C   UNL     1      -9.351  18.942  67.384  0.00  0.00    +0.023 C 
ATOM     19  C   UNL     1     -10.435  18.028  66.876  0.00  0.00    +0.094 C 
ENDROOT
BRANCH   1  20
ATOM     20  C   UNL     1     -10.525  13.831  66.094  0.00  0.00    +0.185 C 
BRANCH  20  23
ATOM     21  C   UNL     1      -7.793  11.301  66.756  0.00  0.00    +0.090 C 
ATOM     22  C   UNL     1      -8.590  12.014  66.522  0.00  0.00    -0.088 C 
ATOM     23  C   UNL     1      -9.397  12.906  66.324  0.00  0.00    -0.066 C 
ENDBRANCH  20  23
ENDBRANCH   1  20
BRANCH   4  24
ATOM     24  C   UNL     1     -12.450  10.676  70.088  0.00  0.00    +0.179 C 
BRANCH  24  25
ATOM     25  C   UNL     1     -11.269  10.094  70.751  0.00  0.00    +0.162 A 
ATOM     26  N   UNL     1     -10.150   9.981  69.992  0.00  0.00    -0.229 NA
ATOM     27  C   UNL     1      -9.044   9.434  70.551  0.00  0.00    +0.084 A 
ATOM     28  C   UNL     1      -9.208   8.631  71.671  0.00  0.00    +0.031 A 
ATOM     29  C   UNL     1      -8.095   8.147  72.345  0.00  0.00    +0.003 A 
ATOM     30  C   UNL     1      -6.812   8.358  71.859  0.00  0.00    +0.000 A 
ATOM     31  C   UNL     1      -6.718   8.979  70.622  0.00  0.00    +0.002 A 
ATOM     32  C   UNL     1     -10.475   8.371  72.136  0.00  0.00    +0.062 A 
ATOM     33  C   UNL     1     -10.683   7.460  73.300  0.00  0.00    +0.052 C 
ATOM     34  C   UNL     1      -7.778   9.625  70.043  0.00  0.00    +0.019 A 
ATOM     35  N   UNL     1     -11.498   9.033  71.565  0.00  0.00    -0.233 NA
ENDBRANCH  24  25
ENDBRANCH   4  24
TORSDOF 4
ENDMDL
MODEL 9
REMARK VINA RESULT:      -7.8      2.626      5.109
REMARK  Name = 
REMARK  4 active torsions:
REMARK  status: ('A' for Active; 'I' for Inactive)
REMARK    1  A    between atoms: C_3  and  C_4
REMARK    2  A    between atoms: C_4  and  N_5
REMARK    3  A    between atoms: N_19  and  C_20
REMARK    4  A    between atoms: C_20  and  C_21
REMARK                            x       y       z     vdW  Elec       q    Type
REMARK                         _______ _______ _______ _____ _____    ______ ____
ROOT
ATOM      1  N   UNL     1     -10.614  15.464  69.028  0.00  0.00    -0.282 N 
ATOM      2  C   UNL     1     -10.336  14.183  68.743  0.00  0.00    +0.154 A 
ATOM      3  C   UNL     1     -10.929  12.957  69.016  0.00  0.00    +0.284 A 
ATOM      4  N   UNL     1     -10.346  11.804  68.635  0.00  0.00    -0.240 N 
ATOM      5  C   UNL     1      -9.101  11.854  68.161  0.00  0.00    +0.335 A 
ATOM      6  N   UNL     1      -8.518  13.008  67.832  0.00  0.00    -0.263 N 
ATOM      7  C   UNL     1      -7.249  13.077  67.140  0.00  0.00    +0.137 C 
ATOM      8  O   UNL     1      -8.401  10.805  68.179  0.00  0.00    -0.246 OA
ATOM      9  O   UNL     1     -12.007  12.955  69.681  0.00  0.00    -0.265 OA
ATOM     10  C   UNL     1      -9.124  14.178  68.104  0.00  0.00    +0.171 A 
ATOM     11  N   UNL     1      -8.576  15.387  68.383  0.00  0.00    -0.196 NA
ATOM     12  C   UNL     1      -9.569  16.252  68.671  0.00  0.00    +0.203 A 
ATOM     13  N   UNL     1      -9.587  17.658  68.388  0.00  0.00    -0.278 N 
ATOM     14  C   UNL     1     -10.563  18.285  67.600  0.00  0.00    +0.112 C 
ATOM     15  C   UNL     1      -9.908  18.862  66.214  0.00  0.00    +0.112 C 
ATOM     16  N   UNL     1      -8.799  17.749  66.123  0.00  0.00    -0.131 NA
ATOM     17  C   UNL     1      -8.955  19.934  67.002  0.00  0.00    +0.023 C 
ATOM     18  C   UNL     1      -7.953  19.252  67.821  0.00  0.00    +0.023 C 
ATOM     19  C   UNL     1      -8.504  18.444  68.965  0.00  0.00    +0.094 C 
ENDROOT
BRANCH   1  20
ATOM     20  C   UNL     1     -11.944  15.938  69.322  0.00  0.00    +0.185 C 
BRANCH  20  23
ATOM     21  C   UNL     1     -12.443  15.878  73.071  0.00  0.00    +0.090 C 
ATOM     22  C   UNL     1     -12.284  15.939  71.989  0.00  0.00    -0.088 C 
ATOM     23  C   UNL     1     -12.227  15.936  70.771  0.00  0.00    -0.066 C 
ENDBRANCH  20  23
ENDBRANCH   1  20
BRANCH   4  24
ATOM     24  C   UNL     1     -11.141  10.616  68.517  0.00  0.00    +0.179 C 
BRANCH  24  25
ATOM     25  C   UNL     1     -11.160   9.780  69.731  0.00  0.00    +0.162 A 
ATOM     26  N   UNL     1     -10.552   8.571  69.637  0.00  0.00    -0.229 NA
ATOM     27  C   UNL     1     -10.559   7.758  70.721  0.00  0.00    +0.084 A 
ATOM     28  C   UNL     1     -11.525   7.976  71.694  0.00  0.00    +0.031 A 
ATOM     29  C   UNL     1     -11.497   7.246  72.873  0.00  0.00    +0.003 A 
ATOM     30  C   UNL     1     -10.583   6.218  73.061  0.00  0.00    +0.000 A 
ATOM     31  C   UNL     1      -9.783   5.900  71.972  0.00  0.00    +0.002 A 
ATOM     32  C   UNL     1     -12.469   8.957  71.500  0.00  0.00    +0.062 A 
ATOM     33  C   UNL     1     -13.556   9.170  72.500  0.00  0.00    +0.052 C 
ATOM     34  C   UNL     1      -9.667   6.722  70.884  0.00  0.00    +0.019 A 
ATOM     35  N   UNL     1     -12.320   9.765  70.435  0.00  0.00    -0.233 NA
ENDBRANCH  24  25
ENDBRANCH   4  24
TORSDOF 4
ENDMDL
