MODEL 1
REMARK VINA RESULT:      -4.1      0.000      0.000
REMARK  Name = 
REMARK  0 active torsions:
REMARK  status: ('A' for Active; 'I' for Inactive)
REMARK                            x       y       z     vdW  Elec       q    Type
REMARK                         _______ _______ _______ _____ _____    ______ ____
ROOT
ATOM      1 CL   UNL     1     -12.283  12.520  64.090  0.00  0.00    -0.112 Cl
ATOM      2  C   UNL     1     -10.636  13.304  64.479  0.00  0.00    +0.112 C 
ATOM      3  C   UNL     1      -9.975  12.081  65.342  0.00  0.00    +0.112 C 
ATOM      4 CL   UNL     1     -10.512  10.635  64.292  0.00  0.00    -0.112 Cl
ATOM      5  C   UNL     1     -11.192  11.984  66.410  0.00  0.00    +0.112 C 
ATOM      6 CL   UNL     1     -10.688  10.368  67.167  0.00  0.00    -0.112 Cl
ATOM      7  C   UNL     1     -10.463  12.897  67.552  0.00  0.00    +0.112 C 
ATOM      8 CL   UNL     1     -12.079  13.617  68.145  0.00  0.00    -0.112 Cl
ATOM      9  C   UNL     1      -9.924  14.131  66.619  0.00  0.00    +0.112 C 
ATOM     10 CL   UNL     1     -10.356  15.535  67.755  0.00  0.00    -0.112 Cl
ATOM     11  C   UNL     1     -11.256  14.211  65.688  0.00  0.00    +0.112 C 
ATOM     12 CL   UNL     1     -10.864  15.843  64.910  0.00  0.00    -0.112 Cl
ENDROOT
TORSDOF 0
ENDMDL
MODEL 2
REMARK VINA RESULT:      -4.1      0.123      4.279
REMARK  Name = 
REMARK  0 active torsions:
REMARK  status: ('A' for Active; 'I' for Inactive)
REMARK                            x       y       z     vdW  Elec       q    Type
REMARK                         _______ _______ _______ _____ _____    ______ ____
ROOT
ATOM      1 CL   UNL     1     -12.049  13.710  68.233  0.00  0.00    -0.112 Cl
ATOM      2  C   UNL     1     -10.454  12.923  67.671  0.00  0.00    +0.112 C 
ATOM      3  C   UNL     1      -9.888  14.144  66.739  0.00  0.00    +0.112 C 
ATOM      4 CL   UNL     1     -10.307  15.592  67.838  0.00  0.00    -0.112 Cl
ATOM      5  C   UNL     1     -11.214  14.240  65.808  0.00  0.00    +0.112 C 
ATOM      6 CL   UNL     1     -10.792  15.854  64.998  0.00  0.00    -0.112 Cl
ATOM      7  C   UNL     1     -10.612  13.324  64.597  0.00  0.00    +0.112 C 
ATOM      8 CL   UNL     1     -12.283  12.605  64.183  0.00  0.00    -0.112 Cl
ATOM      9  C   UNL     1      -9.977  12.091  65.469  0.00  0.00    +0.112 C 
ATOM     10 CL   UNL     1     -10.531  10.686  64.389  0.00  0.00    -0.112 Cl
ATOM     11  C   UNL     1     -11.201  12.015  66.538  0.00  0.00    +0.112 C 
ATOM     12 CL   UNL     1     -10.730  10.384  67.273  0.00  0.00    -0.112 Cl
ENDROOT
TORSDOF 0
ENDMDL
MODEL 3
REMARK VINA RESULT:      -4.1      1.297      3.353
REMARK  Name = 
REMARK  0 active torsions:
REMARK  status: ('A' for Active; 'I' for Inactive)
REMARK                            x       y       z     vdW  Elec       q    Type
REMARK                         _______ _______ _______ _____ _____    ______ ____
ROOT
ATOM      1 CL   UNL     1     -10.416  11.822  65.011  0.00  0.00    -0.112 Cl
ATOM      2  C   UNL     1     -11.892  12.208  66.084  0.00  0.00    +0.112 C 
ATOM      3  C   UNL     1     -12.278  13.671  65.460  0.00  0.00    +0.112 C 
ATOM      4 CL   UNL     1     -12.050  13.305  63.645  0.00  0.00    -0.112 Cl
ATOM      5  C   UNL     1     -10.808  14.319  65.695  0.00  0.00    +0.112 C 
ATOM      6 CL   UNL     1     -11.071  15.833  64.657  0.00  0.00    -0.112 Cl
ATOM      7  C   UNL     1     -11.193  15.057  67.101  0.00  0.00    +0.112 C 
ATOM      8 CL   UNL     1      -9.479  14.825  67.802  0.00  0.00    -0.112 Cl
ATOM      9  C   UNL     1     -11.979  13.831  67.852  0.00  0.00    +0.112 C 
ATOM     10 CL   UNL     1     -11.252  14.046  69.548  0.00  0.00    -0.112 Cl
ATOM     11  C   UNL     1     -10.962  12.666  67.347  0.00  0.00    +0.112 C 
ATOM     12 CL   UNL     1     -11.565  11.352  68.501  0.00  0.00    -0.112 Cl
ENDROOT
TORSDOF 0
ENDMDL
MODEL 4
REMARK VINA RESULT:      -4.1      1.252      3.507
REMARK  Name = 
REMARK  0 active torsions:
REMARK  status: ('A' for Active; 'I' for Inactive)
REMARK                            x       y       z     vdW  Elec       q    Type
REMARK                         _______ _______ _______ _____ _____    ______ ____
ROOT
ATOM      1 CL   UNL     1      -9.621  14.921  67.792  0.00  0.00    -0.112 Cl
ATOM      2  C   UNL     1     -11.327  15.057  67.050  0.00  0.00    +0.112 C 
ATOM      3  C   UNL     1     -12.025  13.777  67.791  0.00  0.00    +0.112 C 
ATOM      4 CL   UNL     1     -11.332  13.998  69.510  0.00  0.00    -0.112 Cl
ATOM      5  C   UNL     1     -10.917  12.701  67.293  0.00  0.00    +0.112 C 
ATOM      6 CL   UNL     1     -11.434  11.321  68.418  0.00  0.00    -0.112 Cl
ATOM      7  C   UNL     1     -11.791  12.166  66.020  0.00  0.00    +0.112 C 
ATOM      8 CL   UNL     1     -10.270  11.859  64.983  0.00  0.00    -0.112 Cl
ATOM      9  C   UNL     1     -12.279  13.599  65.396  0.00  0.00    +0.112 C 
ATOM     10 CL   UNL     1     -12.015  13.213  63.599  0.00  0.00    -0.112 Cl
ATOM     11  C   UNL     1     -10.865  14.363  65.645  0.00  0.00    +0.112 C 
ATOM     12 CL   UNL     1     -11.237  15.834  64.586  0.00  0.00    -0.112 Cl
ENDROOT
TORSDOF 0
ENDMDL
MODEL 5
REMARK VINA RESULT:      -4.0      1.463      3.183
REMARK  Name = 
REMARK  0 active torsions:
REMARK  status: ('A' for Active; 'I' for Inactive)
REMARK                            x       y       z     vdW  Elec       q    Type
REMARK                         _______ _______ _______ _____ _____    ______ ____
ROOT
ATOM      1 CL   UNL     1      -9.959  11.660  63.712  0.00  0.00    -0.112 Cl
ATOM      2  C   UNL     1     -10.735  11.445  65.395  0.00  0.00    +0.112 C 
ATOM      3  C   UNL     1     -11.971  12.505  65.237  0.00  0.00    +0.112 C 
ATOM      4 CL   UNL     1     -12.506  12.100  63.496  0.00  0.00    -0.112 Cl
ATOM      5  C   UNL     1     -11.029  13.766  64.843  0.00  0.00    +0.112 C 
ATOM      6 CL   UNL     1     -12.393  14.885  64.273  0.00  0.00    -0.112 Cl
ATOM      7  C   UNL     1     -10.972  14.388  66.352  0.00  0.00    +0.112 C 
ATOM      8 CL   UNL     1      -9.233  15.026  66.127  0.00  0.00    -0.112 Cl
ATOM      9  C   UNL     1     -10.668  13.022  67.205  0.00  0.00    +0.112 C 
ATOM     10 CL   UNL     1      -9.399  13.711  68.372  0.00  0.00    -0.112 Cl
ATOM     11  C   UNL     1      -9.625  12.397  66.123  0.00  0.00    +0.112 C 
ATOM     12 CL   UNL     1      -8.951  11.076  67.229  0.00  0.00    -0.112 Cl
ENDROOT
TORSDOF 0
ENDMDL
MODEL 6
REMARK VINA RESULT:      -4.0      3.254      4.631
REMARK  Name = 
REMARK  0 active torsions:
REMARK  status: ('A' for Active; 'I' for Inactive)
REMARK                            x       y       z     vdW  Elec       q    Type
REMARK                         _______ _______ _______ _____ _____    ______ ____
ROOT
ATOM      1 CL   UNL     1      -9.964  15.442  65.375  0.00  0.00    -0.112 Cl
ATOM      2  C   UNL     1      -8.613  15.756  66.621  0.00  0.00    +0.112 C 
ATOM      3  C   UNL     1      -9.459  15.456  67.988  0.00  0.00    +0.112 C 
ATOM      4 CL   UNL     1     -10.399  13.939  67.444  0.00  0.00    -0.112 Cl
ATOM      5  C   UNL     1     -10.640  16.521  67.663  0.00  0.00    +0.112 C 
ATOM      6 CL   UNL     1     -11.818  15.943  68.973  0.00  0.00    -0.112 Cl
ATOM      7  C   UNL     1     -10.012  17.724  68.573  0.00  0.00    +0.112 C 
ATOM      8 CL   UNL     1     -10.642  19.051  67.423  0.00  0.00    -0.112 Cl
ATOM      9  C   UNL     1      -8.447  17.648  68.093  0.00  0.00    +0.112 C 
ATOM     10 CL   UNL     1      -8.123  19.470  67.946  0.00  0.00    -0.112 Cl
ATOM     11  C   UNL     1      -8.783  17.378  66.523  0.00  0.00    +0.112 C 
ATOM     12 CL   UNL     1      -7.074  17.702  65.891  0.00  0.00    -0.112 Cl
ENDROOT
TORSDOF 0
ENDMDL
MODEL 7
REMARK VINA RESULT:      -4.0      3.260      5.756
REMARK  Name = 
REMARK  0 active torsions:
REMARK  status: ('A' for Active; 'I' for Inactive)
REMARK                            x       y       z     vdW  Elec       q    Type
REMARK                         _______ _______ _______ _____ _____    ______ ____
ROOT
ATOM      1 CL   UNL     1     -10.554  19.064  67.494  0.00  0.00    -0.112 Cl
ATOM      2  C   UNL     1      -9.971  17.710  68.637  0.00  0.00    +0.112 C 
ATOM      3  C   UNL     1      -8.415  17.618  68.141  0.00  0.00    +0.112 C 
ATOM      4 CL   UNL     1      -8.033  19.437  67.980  0.00  0.00    -0.112 Cl
ATOM      5  C   UNL     1      -8.776  17.374  66.578  0.00  0.00    +0.112 C 
ATOM      6 CL   UNL     1      -7.067  17.655  65.916  0.00  0.00    -0.112 Cl
ATOM      7  C   UNL     1      -8.626  15.749  66.641  0.00  0.00    +0.112 C 
ATOM      8 CL   UNL     1      -9.968  15.480  65.374  0.00  0.00    -0.112 Cl
ATOM      9  C   UNL     1      -9.464  15.446  68.016  0.00  0.00    +0.112 C 
ATOM     10 CL   UNL     1     -10.394  13.946  67.438  0.00  0.00    -0.112 Cl
ATOM     11  C   UNL     1     -10.638  16.533  67.721  0.00  0.00    +0.112 C 
ATOM     12 CL   UNL     1     -11.807  15.931  69.023  0.00  0.00    -0.112 Cl
ENDROOT
TORSDOF 0
ENDMDL
MODEL 8
REMARK VINA RESULT:      -3.9      1.868      3.681
REMARK  Name = 
REMARK  0 active torsions:
REMARK  status: ('A' for Active; 'I' for Inactive)
REMARK                            x       y       z     vdW  Elec       q    Type
REMARK                         _______ _______ _______ _____ _____    ______ ____
ROOT
ATOM      1 CL   UNL     1     -10.632  11.855  67.707  0.00  0.00    -0.112 Cl
ATOM      2  C   UNL     1     -11.995  13.072  68.082  0.00  0.00    +0.112 C 
ATOM      3  C   UNL     1     -11.981  13.904  66.674  0.00  0.00    +0.112 C 
ATOM      4 CL   UNL     1     -11.798  12.484  65.477  0.00  0.00    -0.112 Cl
ATOM      5  C   UNL     1     -10.403  14.279  66.744  0.00  0.00    +0.112 C 
ATOM      6 CL   UNL     1     -10.245  14.878  64.996  0.00  0.00    -0.112 Cl
ATOM      7  C   UNL     1     -10.632  15.769  67.373  0.00  0.00    +0.112 C 
ATOM      8 CL   UNL     1      -9.054  15.696  68.366  0.00  0.00    -0.112 Cl
ATOM      9  C   UNL     1     -11.723  15.414  68.542  0.00  0.00    +0.112 C 
ATOM     10 CL   UNL     1     -11.017  16.468  69.898  0.00  0.00    -0.112 Cl
ATOM     11  C   UNL     1     -11.018  14.017  68.989  0.00  0.00    +0.112 C 
ATOM     12 CL   UNL     1     -11.967  13.802  70.562  0.00  0.00    -0.112 Cl
ENDROOT
TORSDOF 0
ENDMDL
MODEL 9
REMARK VINA RESULT:      -3.9      5.128      7.268
REMARK  Name = 
REMARK  0 active torsions:
REMARK  status: ('A' for Active; 'I' for Inactive)
REMARK                            x       y       z     vdW  Elec       q    Type
REMARK                         _______ _______ _______ _____ _____    ______ ____
ROOT
ATOM      1 CL   UNL     1      -6.795  20.556  66.398  0.00  0.00    -0.112 Cl
ATOM      2  C   UNL     1      -8.314  20.250  67.437  0.00  0.00    +0.112 C 
ATOM      3  C   UNL     1      -7.607  19.466  68.687  0.00  0.00    +0.112 C 
ATOM      4 CL   UNL     1      -6.081  20.521  68.892  0.00  0.00    -0.112 Cl
ATOM      5  C   UNL     1      -6.911  18.326  67.766  0.00  0.00    +0.112 C 
ATOM      6 CL   UNL     1      -5.785  17.649  69.075  0.00  0.00    -0.112 Cl
ATOM      7  C   UNL     1      -8.077  17.208  68.005  0.00  0.00    +0.112 C 
ATOM      8 CL   UNL     1      -7.876  16.493  66.293  0.00  0.00    -0.112 Cl
ATOM      9  C   UNL     1      -9.406  18.138  67.773  0.00  0.00    +0.112 C 
ATOM     10 CL   UNL     1     -10.401  16.937  66.765  0.00  0.00    -0.112 Cl
ATOM     11  C   UNL     1      -8.786  18.979  66.526  0.00  0.00    +0.112 C 
ATOM     12 CL   UNL     1     -10.383  19.735  65.976  0.00  0.00    -0.112 Cl
ENDROOT
TORSDOF 0
ENDMDL
