MODEL 1
REMARK VINA RESULT:      -8.4      0.000      0.000
REMARK  Name = 
REMARK  12 active torsions:
REMARK  status: ('A' for Active; 'I' for Inactive)
REMARK    1  A    between atoms: O_2  and  C_3
REMARK    2  A    between atoms: N_5  and  C_6
REMARK    3  A    between atoms: C_6  and  C_7
REMARK    4  A    between atoms: C_6  and  C_63
REMARK    5  A    between atoms: C_15  and  C_16
REMARK    6  A    between atoms: C_19  and  C_20
REMARK    7  A    between atoms: C_31  and  C_32
REMARK    8  A    between atoms: C_37  and  C_38
REMARK    9  A    between atoms: C_45  and  C_47
REMARK   10  A    between atoms: C_47  and  N_48
REMARK   11  A    between atoms: C_47  and  C_53
REMARK   12  A    between atoms: C_49  and  O_51
REMARK                            x       y       z     vdW  Elec       q    Type
REMARK                         _______ _______ _______ _____ _____    ______ ____
ROOT
ATOM      1  C   UNL     1     -10.897  12.836  66.534  0.00  0.00    +0.019 A 
ATOM      2  C   UNL     1     -11.723  12.608  67.627  0.00  0.00    +0.003 A 
ATOM      3  C   UNL     1     -11.720  11.404  68.331  0.00  0.00    +0.042 A 
ATOM      4  C   UNL     1     -12.005  11.113  69.773  0.00  0.00    +0.301 C 
ATOM      5  C   UNL     1     -10.893  10.220  70.234  0.00  0.00    +0.042 A 
ATOM      6  C   UNL     1     -10.208   9.808  69.098  0.00  0.00    +0.001 A 
ATOM      7  C   UNL     1      -9.167   8.902  69.264  0.00  0.00    -0.000 A 
ATOM      8  C   UNL     1      -9.082   8.203  70.462  0.00  0.00    -0.000 A 
ATOM      9  C   UNL     1     -10.117   8.213  71.393  0.00  0.00    -0.000 A 
ATOM     10  C   UNL     1     -10.939   9.329  71.302  0.00  0.00    +0.001 A 
ATOM     11  F   UNL     1     -13.237  10.534  69.926  0.00  0.00    -0.195 F 
ATOM     12  F   UNL     1     -11.970  12.268  70.528  0.00  0.00    -0.195 F 
ATOM     13  C   UNL     1     -10.887  10.370  67.920  0.00  0.00    +0.001 A 
ATOM     14  C   UNL     1     -10.501  10.450  66.585  0.00  0.00    -0.000 A 
ATOM     15  C   UNL     1     -10.477  11.667  65.907  0.00  0.00    +0.002 A 
ENDROOT
BRANCH   9  16
ATOM     16  C   UNL     1     -10.704   6.944  71.879  0.00  0.00    +0.002 A 
ATOM     17  C   UNL     1     -10.532   5.759  71.166  0.00  0.00    +0.021 A 
ATOM     18  C   UNL     1      -9.995   4.623  71.723  0.00  0.00    +0.100 A 
ATOM     19  C   UNL     1     -10.255   4.458  73.080  0.00  0.00    +0.100 A 
ATOM     20  N   UNL     1      -9.710   3.276  73.366  0.00  0.00    -0.228 NA
ATOM     21  C   UNL     1      -9.476   2.600  72.206  0.00  0.00    +0.157 A 
ATOM     22  C   UNL     1     -10.766   5.505  73.836  0.00  0.00    +0.021 A 
ATOM     23  N   UNL     1      -9.217   3.593  71.323  0.00  0.00    -0.228 NA
ATOM     24  C   UNL     1     -10.851   6.763  73.249  0.00  0.00    +0.002 A 
BRANCH  21  25
ATOM     25  C   UNL     1      -8.326   1.521  72.532  0.00  0.00    +0.134 C 
ATOM     26  N   UNL     1      -9.304   0.375  72.900  0.00  0.00    -0.275 N 
ATOM     27  C   UNL     1     -10.668   0.281  72.477  0.00  0.00    +0.246 C 
ATOM     28  O   UNL     1     -10.913   0.669  71.343  0.00  0.00    -0.273 OA
ATOM     29  C   UNL     1      -8.349  -0.825  72.529  0.00  0.00    +0.076 C 
ATOM     30  C   UNL     1      -8.673  -0.447  70.985  0.00  0.00    +0.022 C 
ATOM     31  C   UNL     1      -6.893  -0.062  72.598  0.00  0.00    +0.020 C 
ATOM     32  C   UNL     1      -6.657   0.438  71.227  0.00  0.00    +0.004 C 
ATOM     33  C   UNL     1      -8.125   1.054  70.904  0.00  0.00    +0.027 C 
BRANCH  27  34
ATOM     34  C   UNL     1     -11.770   0.402  73.640  0.00  0.00    +0.175 C 
BRANCH  34  35
ATOM     35  C   UNL     1     -11.492  -1.137  74.151  0.00  0.00    +0.029 C 
ATOM     36  C   UNL     1     -12.292  -1.341  75.397  0.00  0.00    +0.002 C 
ATOM     37  C   UNL     1     -12.097  -2.018  73.076  0.00  0.00    +0.002 C 
ENDBRANCH  34  35
BRANCH  34  38
ATOM     38  N   UNL     1     -13.002  -0.044  72.762  0.00  0.00    -0.161 NA
ATOM     39  C   UNL     1     -14.206   0.640  72.992  0.00  0.00    +0.422 C 
ATOM     40  O   UNL     1     -14.134   1.829  73.397  0.00  0.00    -0.225 OA
BRANCH  39  41
ATOM     41  O   UNL     1     -15.462   0.169  72.651  0.00  0.00    -0.429 OA
ATOM     42  C   UNL     1     -15.889   0.202  71.292  0.00  0.00    +0.257 C 
ENDBRANCH  39  41
ENDBRANCH  34  38
ENDBRANCH  27  34
ENDBRANCH  21  25
ENDBRANCH   9  16
BRANCH   1  45
ATOM     43  C   UNL     1      -9.241  15.927  67.325  0.00  0.00    +0.157 A 
ATOM     44  N   UNL     1      -9.282  14.568  67.424  0.00  0.00    -0.227 NA
ATOM     45  C   UNL     1     -10.069  14.057  66.448  0.00  0.00    +0.102 A 
ATOM     46  C   UNL     1     -10.313  15.173  65.649  0.00  0.00    +0.119 A 
ATOM     47  N   UNL     1     -10.277  16.190  66.545  0.00  0.00    -0.226 NA
BRANCH  43  50
ATOM     48  C   UNL     1      -6.661  17.023  67.435  0.00  0.00    +0.246 C 
ATOM     49  N   UNL     1      -7.757  17.527  68.106  0.00  0.00    -0.273 N 
ATOM     50  C   UNL     1      -8.914  16.662  68.722  0.00  0.00    +0.134 C 
ATOM     51  C   UNL     1     -10.062  17.825  68.534  0.00  0.00    +0.029 C 
ATOM     52  C   UNL     1      -9.490  18.728  67.575  0.00  0.00    +0.020 C 
ATOM     53  C   UNL     1     -10.267  19.959  67.290  0.00  0.00    +0.002 C 
ATOM     54  C   UNL     1      -9.634  19.153  66.245  0.00  0.00    +0.002 C 
ATOM     55  C   UNL     1      -8.131  18.898  68.249  0.00  0.00    +0.094 C 
ATOM     56  O   UNL     1      -6.603  15.951  66.835  0.00  0.00    -0.273 OA
BRANCH  48  57
ATOM     57  C   UNL     1      -5.273  17.726  67.872  0.00  0.00    +0.175 C 
BRANCH  57  59
ATOM     58  C   UNL     1      -4.851  17.131  70.322  0.00  0.00    +0.422 C 
ATOM     59  N   UNL     1      -5.075  16.690  69.032  0.00  0.00    -0.161 NA
ATOM     60  O   UNL     1      -5.553  18.078  70.716  0.00  0.00    -0.225 OA
BRANCH  58  62
ATOM     61  C   UNL     1      -4.711  15.063  71.113  0.00  0.00    +0.257 C 
ATOM     62  O   UNL     1      -4.500  16.210  71.318  0.00  0.00    -0.429 OA
ENDBRANCH  58  62
ENDBRANCH  57  59
BRANCH  57  63
ATOM     63  C   UNL     1      -4.380  16.909  66.758  0.00  0.00    +0.029 C 
ATOM     64  C   UNL     1      -2.976  16.861  67.372  0.00  0.00    +0.002 C 
ATOM     65  C   UNL     1      -4.132  17.896  65.616  0.00  0.00    +0.002 C 
ENDBRANCH  57  63
ENDBRANCH  48  57
ENDBRANCH  43  50
ENDBRANCH   1  45
TORSDOF 12
ENDMDL
MODEL 2
REMARK VINA RESULT:      -7.7      2.019      3.147
REMARK  Name = 
REMARK  12 active torsions:
REMARK  status: ('A' for Active; 'I' for Inactive)
REMARK    1  A    between atoms: O_2  and  C_3
REMARK    2  A    between atoms: N_5  and  C_6
REMARK    3  A    between atoms: C_6  and  C_7
REMARK    4  A    between atoms: C_6  and  C_63
REMARK    5  A    between atoms: C_15  and  C_16
REMARK    6  A    between atoms: C_19  and  C_20
REMARK    7  A    between atoms: C_31  and  C_32
REMARK    8  A    between atoms: C_37  and  C_38
REMARK    9  A    between atoms: C_45  and  C_47
REMARK   10  A    between atoms: C_47  and  N_48
REMARK   11  A    between atoms: C_47  and  C_53
REMARK   12  A    between atoms: C_49  and  O_51
REMARK                            x       y       z     vdW  Elec       q    Type
REMARK                         _______ _______ _______ _____ _____    ______ ____
ROOT
ATOM      1  C   UNL     1     -10.907  13.866  65.517  0.00  0.00    +0.019 A 
ATOM      2  C   UNL     1     -11.497  13.384  66.679  0.00  0.00    +0.003 A 
ATOM      3  C   UNL     1     -11.297  12.082  67.137  0.00  0.00    +0.042 A 
ATOM      4  C   UNL     1     -11.285  11.526  68.528  0.00  0.00    +0.301 C 
ATOM      5  C   UNL     1     -10.060  10.666  68.611  0.00  0.00    +0.042 A 
ATOM      6  C   UNL     1      -9.585  10.513  67.314  0.00  0.00    +0.001 A 
ATOM      7  C   UNL     1      -8.486   9.685  67.122  0.00  0.00    -0.000 A 
ATOM      8  C   UNL     1      -8.138   8.801  68.136  0.00  0.00    -0.000 A 
ATOM      9  C   UNL     1      -8.974   8.562  69.223  0.00  0.00    -0.000 A 
ATOM     10  C   UNL     1      -9.856   9.603  69.487  0.00  0.00    +0.001 A 
ATOM     11  F   UNL     1     -12.434  10.826  68.789  0.00  0.00    -0.195 F 
ATOM     12  F   UNL     1     -11.167  12.533  69.465  0.00  0.00    -0.195 F 
ATOM     13  C   UNL     1     -10.505  11.209  66.400  0.00  0.00    +0.001 A 
ATOM     14  C   UNL     1     -10.385  11.549  65.056  0.00  0.00    -0.000 A 
ATOM     15  C   UNL     1     -10.555  12.861  64.621  0.00  0.00    +0.002 A 
ENDROOT
BRANCH   9  16
ATOM     16  C   UNL     1      -9.392   7.184  69.564  0.00  0.00    +0.002 A 
ATOM     17  C   UNL     1      -8.633   6.403  70.433  0.00  0.00    +0.021 A 
ATOM     18  C   UNL     1      -9.152   5.828  71.569  0.00  0.00    +0.100 A 
ATOM     19  C   UNL     1     -10.494   5.473  71.482  0.00  0.00    +0.100 A 
ATOM     20  N   UNL     1     -10.741   4.880  72.650  0.00  0.00    -0.228 NA
ATOM     21  C   UNL     1      -9.559   4.555  73.245  0.00  0.00    +0.157 A 
ATOM     22  C   UNL     1     -11.283   5.933  70.436  0.00  0.00    +0.021 A 
ATOM     23  N   UNL     1      -8.726   5.532  72.816  0.00  0.00    -0.228 NA
ATOM     24  C   UNL     1     -10.749   6.886  69.576  0.00  0.00    +0.002 A 
BRANCH  21  25
ATOM     25  C   UNL     1      -9.864   4.419  74.820  0.00  0.00    +0.134 C 
ATOM     26  N   UNL     1     -10.218   2.911  74.768  0.00  0.00    -0.275 N 
ATOM     27  C   UNL     1      -9.800   1.994  73.751  0.00  0.00    +0.246 C 
ATOM     28  O   UNL     1      -8.674   2.157  73.304  0.00  0.00    -0.273 OA
ATOM     29  C   UNL     1      -9.825   2.565  76.257  0.00  0.00    +0.076 C 
ATOM     30  C   UNL     1      -8.289   2.674  75.748  0.00  0.00    +0.022 C 
ATOM     31  C   UNL     1      -9.900   4.066  76.926  0.00  0.00    +0.020 C 
ATOM     32  C   UNL     1      -8.535   4.617  76.784  0.00  0.00    +0.004 C 
ATOM     33  C   UNL     1      -8.228   4.192  75.246  0.00  0.00    +0.027 C 
BRANCH  27  34
ATOM     34  C   UNL     1     -10.970   1.395  72.827  0.00  0.00    +0.175 C 
BRANCH  34  35
ATOM     35  C   UNL     1     -11.739   0.730  74.120  0.00  0.00    +0.029 C 
ATOM     36  C   UNL     1     -13.121   0.372  73.678  0.00  0.00    +0.002 C 
ATOM     37  C   UNL     1     -11.000  -0.567  74.385  0.00  0.00    +0.002 C 
ENDBRANCH  34  35
BRANCH  34  38
ATOM     38  N   UNL     1     -10.243   0.039  72.480  0.00  0.00    -0.161 NA
ATOM     39  C   UNL     1      -9.975  -0.190  71.122  0.00  0.00    +0.422 C 
ATOM     40  O   UNL     1      -9.796   0.813  70.384  0.00  0.00    -0.225 OA
BRANCH  39  41
ATOM     41  O   UNL     1      -9.729  -1.432  70.561  0.00  0.00    -0.429 OA
ATOM     42  C   UNL     1      -8.635  -1.603  69.665  0.00  0.00    +0.257 C 
ENDBRANCH  39  41
ENDBRANCH  34  38
ENDBRANCH  27  34
ENDBRANCH  21  25
ENDBRANCH   9  16
BRANCH   1  45
ATOM     43  C   UNL     1      -9.139  16.817  66.557  0.00  0.00    +0.157 A 
ATOM     44  N   UNL     1      -9.121  15.481  66.293  0.00  0.00    -0.227 NA
ATOM     45  C   UNL     1     -10.175  15.150  65.511  0.00  0.00    +0.102 A 
ATOM     46  C   UNL     1     -10.688  16.398  65.161  0.00  0.00    +0.119 A 
ATOM     47  N   UNL     1     -10.378  17.157  66.241  0.00  0.00    -0.226 NA
BRANCH  43  50
ATOM     48  C   UNL     1      -6.790  18.299  66.156  0.00  0.00    +0.246 C 
ATOM     49  N   UNL     1      -7.603  18.402  67.267  0.00  0.00    -0.273 N 
ATOM     50  C   UNL     1      -8.385  17.210  67.927  0.00  0.00    +0.134 C 
ATOM     51  C   UNL     1      -9.610  18.153  68.490  0.00  0.00    +0.029 C 
ATOM     52  C   UNL     1      -9.499  19.363  67.725  0.00  0.00    +0.020 C 
ATOM     53  C   UNL     1     -10.420  20.462  68.101  0.00  0.00    +0.002 C 
ATOM     54  C   UNL     1     -10.150  20.086  66.713  0.00  0.00    +0.002 C 
ATOM     55  C   UNL     1      -8.005  19.596  67.939  0.00  0.00    +0.094 C 
ATOM     56  O   UNL     1      -6.871  17.449  65.270  0.00  0.00    -0.273 OA
BRANCH  48  57
ATOM     57  C   UNL     1      -5.398  19.104  66.312  0.00  0.00    +0.175 C 
BRANCH  57  59
ATOM     58  C   UNL     1      -3.893  17.313  67.342  0.00  0.00    +0.422 C 
ATOM     59  N   UNL     1      -4.579  17.769  66.233  0.00  0.00    -0.161 NA
ATOM     60  O   UNL     1      -4.490  17.379  68.432  0.00  0.00    -0.225 OA
BRANCH  58  62
ATOM     61  C   UNL     1      -3.397  15.167  67.605  0.00  0.00    +0.257 C 
ATOM     62  O   UNL     1      -3.024  16.222  67.219  0.00  0.00    -0.429 OA
ENDBRANCH  58  62
ENDBRANCH  57  59
BRANCH  57  63
ATOM     63  C   UNL     1      -5.297  19.462  64.710  0.00  0.00    +0.029 C 
ATOM     64  C   UNL     1      -3.892  20.053  64.550  0.00  0.00    +0.002 C 
ATOM     65  C   UNL     1      -6.136  20.725  64.510  0.00  0.00    +0.002 C 
ENDBRANCH  57  63
ENDBRANCH  48  57
ENDBRANCH  43  50
ENDBRANCH   1  45
TORSDOF 12
ENDMDL
MODEL 3
REMARK VINA RESULT:      -7.3      1.945     15.623
REMARK  Name = 
REMARK  12 active torsions:
REMARK  status: ('A' for Active; 'I' for Inactive)
REMARK    1  A    between atoms: O_2  and  C_3
REMARK    2  A    between atoms: N_5  and  C_6
REMARK    3  A    between atoms: C_6  and  C_7
REMARK    4  A    between atoms: C_6  and  C_63
REMARK    5  A    between atoms: C_15  and  C_16
REMARK    6  A    between atoms: C_19  and  C_20
REMARK    7  A    between atoms: C_31  and  C_32
REMARK    8  A    between atoms: C_37  and  C_38
REMARK    9  A    between atoms: C_45  and  C_47
REMARK   10  A    between atoms: C_47  and  N_48
REMARK   11  A    between atoms: C_47  and  C_53
REMARK   12  A    between atoms: C_49  and  O_51
REMARK                            x       y       z     vdW  Elec       q    Type
REMARK                         _______ _______ _______ _____ _____    ______ ____
ROOT
ATOM      1  C   UNL     1     -10.626   6.521  73.156  0.00  0.00    +0.019 A 
ATOM      2  C   UNL     1     -11.506   7.549  72.840  0.00  0.00    +0.003 A 
ATOM      3  C   UNL     1     -11.114   8.675  72.116  0.00  0.00    +0.042 A 
ATOM      4  C   UNL     1     -11.886   9.552  71.179  0.00  0.00    +0.301 C 
ATOM      5  C   UNL     1     -11.017   9.718  69.969  0.00  0.00    +0.042 A 
ATOM      6  C   UNL     1      -9.760   9.230  70.304  0.00  0.00    +0.001 A 
ATOM      7  C   UNL     1      -8.748   9.344  69.358  0.00  0.00    -0.000 A 
ATOM      8  C   UNL     1      -8.931  10.222  68.297  0.00  0.00    -0.000 A 
ATOM      9  C   UNL     1      -9.977  11.141  68.274  0.00  0.00    -0.000 A 
ATOM     10  C   UNL     1     -11.063  10.769  69.058  0.00  0.00    +0.001 A 
ATOM     11  F   UNL     1     -12.197  10.750  71.767  0.00  0.00    -0.195 F 
ATOM     12  F   UNL     1     -13.060   8.945  70.784  0.00  0.00    -0.195 F 
ATOM     13  C   UNL     1      -9.790   8.806  71.713  0.00  0.00    +0.001 A 
ATOM     14  C   UNL     1      -8.891   8.061  72.470  0.00  0.00    -0.000 A 
ATOM     15  C   UNL     1      -9.292   6.919  73.160  0.00  0.00    +0.002 A 
ENDROOT
BRANCH   9  16
ATOM     16  C   UNL     1      -9.708  12.584  68.084  0.00  0.00    +0.002 A 
ATOM     17  C   UNL     1      -8.858  13.271  68.949  0.00  0.00    +0.021 A 
ATOM     18  C   UNL     1      -7.761  13.976  68.514  0.00  0.00    +0.100 A 
ATOM     19  C   UNL     1      -7.893  14.542  67.251  0.00  0.00    +0.100 A 
ATOM     20  N   UNL     1      -6.759  15.223  67.087  0.00  0.00    -0.228 NA
ATOM     21  C   UNL     1      -6.153  15.378  68.298  0.00  0.00    +0.157 A 
ATOM     22  C   UNL     1      -8.936  14.168  66.412  0.00  0.00    +0.021 A 
ATOM     23  N   UNL     1      -6.519  14.258  68.965  0.00  0.00    -0.228 NA
ATOM     24  C   UNL     1      -9.739  13.100  66.795  0.00  0.00    +0.002 A 
BRANCH  21  25
ATOM     25  C   UNL     1      -4.593  15.638  67.996  0.00  0.00    +0.134 C 
ATOM     26  N   UNL     1      -4.723  17.178  67.882  0.00  0.00    -0.275 N 
ATOM     27  C   UNL     1      -5.772  17.967  68.451  0.00  0.00    +0.246 C 
ATOM     28  O   UNL     1      -6.188  17.610  69.545  0.00  0.00    -0.273 OA
ATOM     29  C   UNL     1      -3.244  17.531  68.304  0.00  0.00    +0.076 C 
ATOM     30  C   UNL     1      -3.714  17.161  69.811  0.00  0.00    +0.022 C 
ATOM     31  C   UNL     1      -2.507  16.096  67.987  0.00  0.00    +0.020 C 
ATOM     32  C   UNL     1      -2.594  15.333  69.251  0.00  0.00    +0.004 C 
ATOM     33  C   UNL     1      -4.143  15.629  69.642  0.00  0.00    +0.027 C 
BRANCH  27  34
ATOM     34  C   UNL     1      -6.748  18.693  67.402  0.00  0.00    +0.175 C 
BRANCH  34  35
ATOM     35  C   UNL     1      -6.806  20.065  68.306  0.00  0.00    +0.029 C 
ATOM     36  C   UNL     1      -5.423  20.632  68.341  0.00  0.00    +0.002 C 
ATOM     37  C   UNL     1      -7.666  21.023  67.506  0.00  0.00    +0.002 C 
ENDBRANCH  34  35
BRANCH  34  38
ATOM     38  N   UNL     1      -8.098  18.156  68.016  0.00  0.00    -0.161 NA
ATOM     39  C   UNL     1      -9.151  17.950  67.111  0.00  0.00    +0.422 C 
ATOM     40  O   UNL     1      -8.853  17.659  65.924  0.00  0.00    -0.225 OA
BRANCH  39  41
ATOM     41  O   UNL     1     -10.490  17.879  67.457  0.00  0.00    -0.429 OA
ATOM     42  C   UNL     1     -10.964  16.790  68.244  0.00  0.00    +0.257 C 
ENDBRANCH  39  41
ENDBRANCH  34  38
ENDBRANCH  27  34
ENDBRANCH  21  25
ENDBRANCH   9  16
BRANCH   1  45
ATOM     43  C   UNL     1     -10.937   2.950  73.412  0.00  0.00    +0.157 A 
ATOM     44  N   UNL     1     -11.361   4.187  73.795  0.00  0.00    -0.227 NA
ATOM     45  C   UNL     1     -10.974   5.111  72.885  0.00  0.00    +0.102 A 
ATOM     46  C   UNL     1     -10.485   4.319  71.847  0.00  0.00    +0.119 A 
ATOM     47  N   UNL     1     -10.016   3.229  72.505  0.00  0.00    -0.226 NA
BRANCH  43  50
ATOM     48  C   UNL     1     -12.932   0.981  73.534  0.00  0.00    +0.246 C 
ATOM     49  N   UNL     1     -11.633   0.810  73.971  0.00  0.00    -0.273 N 
ATOM     50  C   UNL     1     -10.754   1.925  74.643  0.00  0.00    +0.134 C 
ATOM     51  C   UNL     1      -9.327   1.313  74.098  0.00  0.00    +0.029 C 
ATOM     52  C   UNL     1      -9.711   0.437  73.027  0.00  0.00    +0.020 C 
ATOM     53  C   UNL     1      -8.621  -0.357  72.410  0.00  0.00    +0.002 C 
ATOM     54  C   UNL     1      -9.657   0.321  71.629  0.00  0.00    +0.002 C 
ATOM     55  C   UNL     1     -10.797  -0.330  73.779  0.00  0.00    +0.094 C 
ATOM     56  O   UNL     1     -13.452   2.041  73.187  0.00  0.00    -0.273 OA
BRANCH  48  57
ATOM     57  C   UNL     1     -13.903  -0.245  73.943  0.00  0.00    +0.175 C 
BRANCH  57  59
ATOM     58  C   UNL     1     -15.989   0.381  75.281  0.00  0.00    +0.422 C 
ATOM     59  N   UNL     1     -15.047   0.751  74.340  0.00  0.00    -0.161 NA
ATOM     60  O   UNL     1     -15.564  -0.201  76.294  0.00  0.00    -0.225 OA
BRANCH  58  62
ATOM     61  C   UNL     1     -17.799   0.952  76.429  0.00  0.00    +0.257 C 
ATOM     62  O   UNL     1     -17.105   1.198  75.502  0.00  0.00    -0.429 OA
ENDBRANCH  58  62
ENDBRANCH  57  59
BRANCH  57  63
ATOM     63  C   UNL     1     -14.420  -0.494  72.401  0.00  0.00    +0.029 C 
ATOM     64  C   UNL     1     -15.438  -1.633  72.531  0.00  0.00    +0.002 C 
ATOM     65  C   UNL     1     -13.286  -1.238  71.695  0.00  0.00    +0.002 C 
ENDBRANCH  57  63
ENDBRANCH  48  57
ENDBRANCH  43  50
ENDBRANCH   1  45
TORSDOF 12
ENDMDL
MODEL 4
REMARK VINA RESULT:      -7.1      2.131     15.837
REMARK  Name = 
REMARK  12 active torsions:
REMARK  status: ('A' for Active; 'I' for Inactive)
REMARK    1  A    between atoms: O_2  and  C_3
REMARK    2  A    between atoms: N_5  and  C_6
REMARK    3  A    between atoms: C_6  and  C_7
REMARK    4  A    between atoms: C_6  and  C_63
REMARK    5  A    between atoms: C_15  and  C_16
REMARK    6  A    between atoms: C_19  and  C_20
REMARK    7  A    between atoms: C_31  and  C_32
REMARK    8  A    between atoms: C_37  and  C_38
REMARK    9  A    between atoms: C_45  and  C_47
REMARK   10  A    between atoms: C_47  and  N_48
REMARK   11  A    between atoms: C_47  and  C_53
REMARK   12  A    between atoms: C_49  and  O_51
REMARK                            x       y       z     vdW  Elec       q    Type
REMARK                         _______ _______ _______ _____ _____    ______ ____
ROOT
ATOM      1  C   UNL     1     -10.895   6.453  73.075  0.00  0.00    +0.019 A 
ATOM      2  C   UNL     1     -11.160   7.454  72.148  0.00  0.00    +0.003 A 
ATOM      3  C   UNL     1     -10.225   8.431  71.811  0.00  0.00    +0.042 A 
ATOM      4  C   UNL     1     -10.010   9.179  70.531  0.00  0.00    +0.301 C 
ATOM      5  C   UNL     1      -8.537   9.111  70.261  0.00  0.00    +0.042 A 
ATOM      6  C   UNL     1      -7.937   8.628  71.418  0.00  0.00    +0.001 A 
ATOM      7  C   UNL     1      -6.550   8.544  71.440  0.00  0.00    -0.000 A 
ATOM      8  C   UNL     1      -5.830   9.247  70.482  0.00  0.00    -0.000 A 
ATOM      9  C   UNL     1      -6.431  10.195  69.659  0.00  0.00    -0.000 A 
ATOM     10  C   UNL     1      -7.797  10.003  69.491  0.00  0.00    +0.001 A 
ATOM     11  F   UNL     1     -10.463  10.468  70.631  0.00  0.00    -0.195 F 
ATOM     12  F   UNL     1     -10.668   8.568  69.482  0.00  0.00    -0.195 F 
ATOM     13  C   UNL     1      -8.983   8.437  72.436  0.00  0.00    +0.001 A 
ATOM     14  C   UNL     1      -8.963   7.785  73.665  0.00  0.00    -0.000 A 
ATOM     15  C   UNL     1      -9.886   6.788  73.973  0.00  0.00    +0.002 A 
ENDROOT
BRANCH   9  16
ATOM     16  C   UNL     1      -5.902  11.576  69.589  0.00  0.00    +0.002 A 
ATOM     17  C   UNL     1      -6.258  12.424  68.542  0.00  0.00    +0.021 A 
ATOM     18  C   UNL     1      -6.823  13.661  68.741  0.00  0.00    +0.100 A 
ATOM     19  C   UNL     1      -6.420  14.306  69.907  0.00  0.00    +0.100 A 
ATOM     20  N   UNL     1      -7.028  15.490  69.840  0.00  0.00    -0.228 NA
ATOM     21  C   UNL     1      -7.454  15.702  68.563  0.00  0.00    +0.157 A 
ATOM     22  C   UNL     1      -5.736  13.615  70.899  0.00  0.00    +0.021 A 
ATOM     23  N   UNL     1      -7.728  14.451  68.124  0.00  0.00    -0.228 NA
ATOM     24  C   UNL     1      -5.612  12.236  70.776  0.00  0.00    +0.002 A 
BRANCH  21  25
ATOM     25  C   UNL     1      -8.646  16.781  68.655  0.00  0.00    +0.134 C 
ATOM     26  N   UNL     1      -7.731  18.021  68.492  0.00  0.00    -0.275 N 
ATOM     27  C   UNL     1      -6.431  18.021  67.893  0.00  0.00    +0.246 C 
ATOM     28  O   UNL     1      -6.277  17.281  66.932  0.00  0.00    -0.273 OA
ATOM     29  C   UNL     1      -8.814  18.984  67.867  0.00  0.00    +0.076 C 
ATOM     30  C   UNL     1      -8.625  18.117  66.510  0.00  0.00    +0.022 C 
ATOM     31  C   UNL     1     -10.188  18.232  68.371  0.00  0.00    +0.020 C 
ATOM     32  C   UNL     1     -10.526  17.286  67.286  0.00  0.00    +0.004 C 
ATOM     33  C   UNL     1      -9.055  16.657  67.003  0.00  0.00    +0.027 C 
BRANCH  27  34
ATOM     34  C   UNL     1      -5.207  18.348  68.880  0.00  0.00    +0.175 C 
BRANCH  34  35
ATOM     35  C   UNL     1      -4.510  19.358  67.786  0.00  0.00    +0.029 C 
ATOM     36  C   UNL     1      -5.372  20.576  67.693  0.00  0.00    +0.002 C 
ATOM     37  C   UNL     1      -3.201  19.780  68.425  0.00  0.00    +0.002 C 
ENDBRANCH  34  35
BRANCH  34  38
ATOM     38  N   UNL     1      -4.297  17.138  68.438  0.00  0.00    -0.161 NA
ATOM     39  C   UNL     1      -3.495  16.568  69.439  0.00  0.00    +0.422 C 
ATOM     40  O   UNL     1      -3.910  16.628  70.625  0.00  0.00    -0.225 OA
BRANCH  39  41
ATOM     41  O   UNL     1      -2.365  15.802  69.209  0.00  0.00    -0.429 OA
ATOM     42  C   UNL     1      -2.495  14.410  68.934  0.00  0.00    +0.257 C 
ENDBRANCH  39  41
ENDBRANCH  34  38
ENDBRANCH  27  34
ENDBRANCH  21  25
ENDBRANCH   9  16
BRANCH   1  45
ATOM     43  C   UNL     1     -11.068   2.868  73.256  0.00  0.00    +0.157 A 
ATOM     44  N   UNL     1     -11.573   4.079  73.625  0.00  0.00    -0.227 NA
ATOM     45  C   UNL     1     -11.160   5.034  72.759  0.00  0.00    +0.102 A 
ATOM     46  C   UNL     1     -10.563   4.281  71.749  0.00  0.00    +0.119 A 
ATOM     47  N   UNL     1     -10.096   3.202  72.424  0.00  0.00    -0.226 NA
BRANCH  43  50
ATOM     48  C   UNL     1     -13.131   0.969  73.352  0.00  0.00    +0.246 C 
ATOM     49  N   UNL     1     -11.843   0.751  73.798  0.00  0.00    -0.273 N 
ATOM     50  C   UNL     1     -10.931   1.831  74.483  0.00  0.00    +0.134 C 
ATOM     51  C   UNL     1      -9.522   1.173  73.947  0.00  0.00    +0.029 C 
ATOM     52  C   UNL     1      -9.926   0.315  72.868  0.00  0.00    +0.020 C 
ATOM     53  C   UNL     1      -8.860  -0.513  72.255  0.00  0.00    +0.002 C 
ATOM     54  C   UNL     1      -9.865   0.206  71.470  0.00  0.00    +0.002 C 
ATOM     55  C   UNL     1     -11.045  -0.417  73.606  0.00  0.00    +0.094 C 
ATOM     56  O   UNL     1     -13.611   2.048  73.007  0.00  0.00    -0.273 OA
BRANCH  48  57
ATOM     57  C   UNL     1     -14.147  -0.225  73.745  0.00  0.00    +0.175 C 
BRANCH  57  59
ATOM     58  C   UNL     1     -16.133   0.455  75.204  0.00  0.00    +0.422 C 
ATOM     59  N   UNL     1     -15.227   0.808  74.223  0.00  0.00    -0.161 NA
ATOM     60  O   UNL     1     -15.682  -0.168  76.181  0.00  0.00    -0.225 OA
BRANCH  58  62
ATOM     61  C   UNL     1     -17.935   1.004  76.377  0.00  0.00    +0.257 C 
ATOM     62  O   UNL     1     -17.201   1.313  75.500  0.00  0.00    -0.429 OA
ENDBRANCH  58  62
ENDBRANCH  57  59
BRANCH  57  63
ATOM     63  C   UNL     1     -14.728  -0.384  72.215  0.00  0.00    +0.029 C 
ATOM     64  C   UNL     1     -15.782  -1.491  72.332  0.00  0.00    +0.002 C 
ATOM     65  C   UNL     1     -13.648  -1.133  71.433  0.00  0.00    +0.002 C 
ENDBRANCH  57  63
ENDBRANCH  48  57
ENDBRANCH  43  50
ENDBRANCH   1  45
TORSDOF 12
ENDMDL
MODEL 5
REMARK VINA RESULT:      -6.9      1.175      2.048
REMARK  Name = 
REMARK  12 active torsions:
REMARK  status: ('A' for Active; 'I' for Inactive)
REMARK    1  A    between atoms: O_2  and  C_3
REMARK    2  A    between atoms: N_5  and  C_6
REMARK    3  A    between atoms: C_6  and  C_7
REMARK    4  A    between atoms: C_6  and  C_63
REMARK    5  A    between atoms: C_15  and  C_16
REMARK    6  A    between atoms: C_19  and  C_20
REMARK    7  A    between atoms: C_31  and  C_32
REMARK    8  A    between atoms: C_37  and  C_38
REMARK    9  A    between atoms: C_45  and  C_47
REMARK   10  A    between atoms: C_47  and  N_48
REMARK   11  A    between atoms: C_47  and  C_53
REMARK   12  A    between atoms: C_49  and  O_51
REMARK                            x       y       z     vdW  Elec       q    Type
REMARK                         _______ _______ _______ _____ _____    ______ ____
ROOT
ATOM      1  C   UNL     1     -10.628  12.560  66.446  0.00  0.00    +0.019 A 
ATOM      2  C   UNL     1     -11.575  12.303  67.429  0.00  0.00    +0.003 A 
ATOM      3  C   UNL     1     -11.540  11.159  68.224  0.00  0.00    +0.042 A 
ATOM      4  C   UNL     1     -12.000  10.932  69.631  0.00  0.00    +0.301 C 
ATOM      5  C   UNL     1     -10.874  10.217  70.316  0.00  0.00    +0.042 A 
ATOM      6  C   UNL     1      -9.987   9.817  69.324  0.00  0.00    +0.001 A 
ATOM      7  C   UNL     1      -8.886   9.061  69.709  0.00  0.00    -0.000 A 
ATOM      8  C   UNL     1      -8.901   8.459  70.961  0.00  0.00    -0.000 A 
ATOM      9  C   UNL     1     -10.056   8.402  71.736  0.00  0.00    -0.000 A 
ATOM     10  C   UNL     1     -10.977   9.399  71.438  0.00  0.00    +0.001 A 
ATOM     11  F   UNL     1     -13.168  10.216  69.660  0.00  0.00    -0.195 F 
ATOM     12  F   UNL     1     -12.209  12.129  70.285  0.00  0.00    -0.195 F 
ATOM     13  C   UNL     1     -10.543  10.212  68.020  0.00  0.00    +0.001 A 
ATOM     14  C   UNL     1      -9.976  10.250  66.751  0.00  0.00    -0.000 A 
ATOM     15  C   UNL     1      -9.990  11.412  65.983  0.00  0.00    +0.002 A 
ENDROOT
BRANCH   9  16
ATOM     16  C   UNL     1     -10.562   7.106  72.240  0.00  0.00    +0.002 A 
ATOM     17  C   UNL     1     -10.403   5.939  71.494  0.00  0.00    +0.021 A 
ATOM     18  C   UNL     1      -9.786   4.814  71.987  0.00  0.00    +0.100 A 
ATOM     19  C   UNL     1      -9.938   4.618  73.356  0.00  0.00    +0.100 A 
ATOM     20  N   UNL     1      -9.333   3.452  73.579  0.00  0.00    -0.228 NA
ATOM     21  C   UNL     1      -9.163   2.803  72.392  0.00  0.00    +0.157 A 
ATOM     22  C   UNL     1     -10.427   5.634  74.168  0.00  0.00    +0.021 A 
ATOM     23  N   UNL     1      -9.005   3.820  71.512  0.00  0.00    -0.228 NA
ATOM     24  C   UNL     1     -10.599   6.897  73.613  0.00  0.00    +0.002 A 
BRANCH  21  25
ATOM     25  C   UNL     1      -7.956   1.761  72.612  0.00  0.00    +0.134 C 
ATOM     26  N   UNL     1      -8.859   0.589  73.073  0.00  0.00    -0.275 N 
ATOM     27  C   UNL     1     -10.254   0.451  72.782  0.00  0.00    +0.246 C 
ATOM     28  O   UNL     1     -10.616   0.826  71.676  0.00  0.00    -0.273 OA
ATOM     29  C   UNL     1      -7.908  -0.584  72.618  0.00  0.00    +0.076 C 
ATOM     30  C   UNL     1      -8.388  -0.225  71.111  0.00  0.00    +0.022 C 
ATOM     31  C   UNL     1      -6.476   0.222  72.547  0.00  0.00    +0.020 C 
ATOM     32  C   UNL     1      -6.385   0.721  71.158  0.00  0.00    +0.004 C 
ATOM     33  C   UNL     1      -7.895   1.290  70.973  0.00  0.00    +0.027 C 
BRANCH  27  34
ATOM     34  C   UNL     1     -11.244   0.547  74.044  0.00  0.00    +0.175 C 
BRANCH  34  35
ATOM     35  C   UNL     1     -10.654  -0.845  74.693  0.00  0.00    +0.029 C 
ATOM     36  C   UNL     1     -11.194  -0.950  76.082  0.00  0.00    +0.002 C 
ATOM     37  C   UNL     1     -11.289  -1.953  73.877  0.00  0.00    +0.002 C 
ENDBRANCH  34  35
BRANCH  34  38
ATOM     38  N   UNL     1     -12.457  -0.206  73.373  0.00  0.00    -0.161 NA
ATOM     39  C   UNL     1     -13.691   0.463  73.398  0.00  0.00    +0.422 C 
ATOM     40  O   UNL     1     -13.674   1.721  73.410  0.00  0.00    -0.225 OA
BRANCH  39  41
ATOM     41  O   UNL     1     -14.925  -0.145  73.246  0.00  0.00    -0.429 OA
ATOM     42  C   UNL     1     -15.571  -0.133  71.976  0.00  0.00    +0.257 C 
ENDBRANCH  39  41
ENDBRANCH  34  38
ENDBRANCH  27  34
ENDBRANCH  21  25
ENDBRANCH   9  16
BRANCH   1  45
ATOM     43  C   UNL     1      -9.272  15.779  67.290  0.00  0.00    +0.157 A 
ATOM     44  N   UNL     1      -9.163  14.422  67.333  0.00  0.00    -0.227 NA
ATOM     45  C   UNL     1      -9.939  13.865  66.374  0.00  0.00    +0.102 A 
ATOM     46  C   UNL     1     -10.341  14.977  65.635  0.00  0.00    +0.119 A 
ATOM     47  N   UNL     1     -10.368  15.958  66.571  0.00  0.00    -0.226 NA
BRANCH  43  50
ATOM     48  C   UNL     1      -6.753  17.012  67.379  0.00  0.00    +0.246 C 
ATOM     49  N   UNL     1      -7.860  17.437  68.087  0.00  0.00    -0.273 N 
ATOM     50  C   UNL     1      -8.955  16.492  68.701  0.00  0.00    +0.134 C 
ATOM     51  C   UNL     1     -10.168  17.596  68.570  0.00  0.00    +0.029 C 
ATOM     52  C   UNL     1      -9.667  18.555  67.625  0.00  0.00    +0.020 C 
ATOM     53  C   UNL     1     -10.514  19.749  67.391  0.00  0.00    +0.002 C 
ATOM     54  C   UNL     1      -9.862  19.007  66.311  0.00  0.00    +0.002 C 
ATOM     55  C   UNL     1      -8.304  18.780  68.277  0.00  0.00    +0.094 C 
ATOM     56  O   UNL     1      -6.651  15.961  66.747  0.00  0.00    -0.273 OA
BRANCH  48  57
ATOM     57  C   UNL     1      -5.396  17.777  67.808  0.00  0.00    +0.175 C 
BRANCH  57  59
ATOM     58  C   UNL     1      -5.283  19.422  65.855  0.00  0.00    +0.422 C 
ATOM     59  N   UNL     1      -5.856  19.078  67.063  0.00  0.00    -0.161 NA
ATOM     60  O   UNL     1      -5.118  18.502  65.035  0.00  0.00    -0.225 OA
BRANCH  58  62
ATOM     61  C   UNL     1      -5.990  20.690  64.177  0.00  0.00    +0.257 C 
ATOM     62  O   UNL     1      -5.567  20.670  65.283  0.00  0.00    -0.429 OA
ENDBRANCH  58  62
ENDBRANCH  57  59
BRANCH  57  63
ATOM     63  C   UNL     1      -5.976  18.211  69.285  0.00  0.00    +0.029 C 
ATOM     64  C   UNL     1      -5.197  19.485  69.629  0.00  0.00    +0.002 C 
ATOM     65  C   UNL     1      -5.344  17.240  70.283  0.00  0.00    +0.002 C 
ENDBRANCH  57  63
ENDBRANCH  48  57
ENDBRANCH  43  50
ENDBRANCH   1  45
TORSDOF 12
ENDMDL
MODEL 6
REMARK VINA RESULT:      -6.9      2.577      3.919
REMARK  Name = 
REMARK  12 active torsions:
REMARK  status: ('A' for Active; 'I' for Inactive)
REMARK    1  A    between atoms: O_2  and  C_3
REMARK    2  A    between atoms: N_5  and  C_6
REMARK    3  A    between atoms: C_6  and  C_7
REMARK    4  A    between atoms: C_6  and  C_63
REMARK    5  A    between atoms: C_15  and  C_16
REMARK    6  A    between atoms: C_19  and  C_20
REMARK    7  A    between atoms: C_31  and  C_32
REMARK    8  A    between atoms: C_37  and  C_38
REMARK    9  A    between atoms: C_45  and  C_47
REMARK   10  A    between atoms: C_47  and  N_48
REMARK   11  A    between atoms: C_47  and  C_53
REMARK   12  A    between atoms: C_49  and  O_51
REMARK                            x       y       z     vdW  Elec       q    Type
REMARK                         _______ _______ _______ _____ _____    ______ ____
ROOT
ATOM      1  C   UNL     1     -10.773  13.753  65.343  0.00  0.00    +0.019 A 
ATOM      2  C   UNL     1     -11.034  13.013  66.490  0.00  0.00    +0.003 A 
ATOM      3  C   UNL     1     -10.629  11.687  66.635  0.00  0.00    +0.042 A 
ATOM      4  C   UNL     1     -10.248  10.909  67.856  0.00  0.00    +0.301 C 
ATOM      5  C   UNL     1      -8.973  10.202  67.506  0.00  0.00    +0.042 A 
ATOM      6  C   UNL     1      -8.804  10.330  66.133  0.00  0.00    +0.001 A 
ATOM      7  C   UNL     1      -7.718   9.686  65.552  0.00  0.00    -0.000 A 
ATOM      8  C   UNL     1      -7.073   8.692  66.278  0.00  0.00    -0.000 A 
ATOM      9  C   UNL     1      -7.609   8.173  67.453  0.00  0.00    -0.000 A 
ATOM     10  C   UNL     1      -8.485   9.039  68.096  0.00  0.00    +0.001 A 
ATOM     11  F   UNL     1     -11.243  10.041  68.220  0.00  0.00    -0.195 F 
ATOM     12  F   UNL     1      -9.994  11.749  68.921  0.00  0.00    -0.195 F 
ATOM     13  C   UNL     1      -9.965  11.054  65.591  0.00  0.00    +0.001 A 
ATOM     14  C   UNL     1     -10.191  11.628  64.344  0.00  0.00    -0.000 A 
ATOM     15  C   UNL     1     -10.562  12.964  64.215  0.00  0.00    +0.002 A 
ENDROOT
BRANCH   9  16
ATOM     16  C   UNL     1      -7.824   6.716  67.604  0.00  0.00    +0.002 A 
ATOM     17  C   UNL     1      -7.395   6.047  68.749  0.00  0.00    +0.021 A 
ATOM     18  C   UNL     1      -8.236   5.294  69.534  0.00  0.00    +0.100 A 
ATOM     19  C   UNL     1      -9.277   4.676  68.849  0.00  0.00    +0.100 A 
ATOM     20  N   UNL     1      -9.893   3.959  69.788  0.00  0.00    -0.228 NA
ATOM     21  C   UNL     1      -9.073   3.843  70.871  0.00  0.00    +0.157 A 
ATOM     22  C   UNL     1      -9.581   5.039  67.543  0.00  0.00    +0.021 A 
ATOM     23  N   UNL     1      -8.372   5.001  70.845  0.00  0.00    -0.228 NA
ATOM     24  C   UNL     1      -8.936   6.144  66.999  0.00  0.00    +0.002 A 
BRANCH  21  25
ATOM     25  C   UNL     1     -10.025   3.529  72.131  0.00  0.00    +0.134 C 
ATOM     26  N   UNL     1      -9.910   1.987  72.018  0.00  0.00    -0.275 N 
ATOM     27  C   UNL     1      -8.847   1.279  71.372  0.00  0.00    +0.246 C 
ATOM     28  O   UNL     1      -7.728   1.758  71.487  0.00  0.00    -0.273 OA
ATOM     29  C   UNL     1     -10.175   1.659  73.539  0.00  0.00    +0.076 C 
ATOM     30  C   UNL     1      -8.667   2.196  73.793  0.00  0.00    +0.022 C 
ATOM     31  C   UNL     1     -10.938   3.042  74.000  0.00  0.00    +0.020 C 
ATOM     32  C   UNL     1      -9.859   3.936  74.470  0.00  0.00    +0.004 C 
ATOM     33  C   UNL     1      -8.777   3.707  73.280  0.00  0.00    +0.027 C 
BRANCH  27  34
ATOM     34  C   UNL     1      -9.256   0.459  70.052  0.00  0.00    +0.175 C 
BRANCH  34  35
ATOM     35  C   UNL     1      -8.474  -0.891  70.571  0.00  0.00    +0.029 C 
ATOM     36  C   UNL     1      -9.258  -1.445  71.717  0.00  0.00    +0.002 C 
ATOM     37  C   UNL     1      -8.596  -1.875  69.425  0.00  0.00    +0.002 C 
ENDBRANCH  34  35
BRANCH  34  38
ATOM     38  N   UNL     1      -8.025   0.912  69.176  0.00  0.00    -0.161 NA
ATOM     39  C   UNL     1      -8.278   1.116  67.810  0.00  0.00    +0.422 C 
ATOM     40  O   UNL     1      -9.438   1.473  67.478  0.00  0.00    -0.225 OA
BRANCH  39  41
ATOM     41  O   UNL     1      -7.314   1.116  66.817  0.00  0.00    -0.429 OA
ATOM     42  C   UNL     1      -6.161   0.289  66.946  0.00  0.00    +0.257 C 
ENDBRANCH  39  41
ENDBRANCH  34  38
ENDBRANCH  27  34
ENDBRANCH  21  25
ENDBRANCH   9  16
BRANCH   1  45
ATOM     43  C   UNL     1      -9.294  16.783  66.586  0.00  0.00    +0.157 A 
ATOM     44  N   UNL     1      -9.148  15.475  66.232  0.00  0.00    -0.227 NA
ATOM     45  C   UNL     1     -10.168  15.098  65.426  0.00  0.00    +0.102 A 
ATOM     46  C   UNL     1     -10.799  16.312  65.159  0.00  0.00    +0.119 A 
ATOM     47  N   UNL     1     -10.560  17.023  66.289  0.00  0.00    -0.226 NA
BRANCH  43  50
ATOM     48  C   UNL     1      -6.910  18.229  66.269  0.00  0.00    +0.246 C 
ATOM     49  N   UNL     1      -7.755  18.337  67.356  0.00  0.00    -0.273 N 
ATOM     50  C   UNL     1      -8.576  17.153  67.981  0.00  0.00    +0.134 C 
ATOM     51  C   UNL     1      -9.803  18.112  68.514  0.00  0.00    +0.029 C 
ATOM     52  C   UNL     1      -9.649  19.325  67.762  0.00  0.00    +0.020 C 
ATOM     53  C   UNL     1     -10.563  20.437  68.118  0.00  0.00    +0.002 C 
ATOM     54  C   UNL     1     -10.256  20.066  66.736  0.00  0.00    +0.002 C 
ATOM     55  C   UNL     1      -8.159  19.532  68.024  0.00  0.00    +0.094 C 
ATOM     56  O   UNL     1      -6.977  17.387  65.375  0.00  0.00    -0.273 OA
BRANCH  48  57
ATOM     57  C   UNL     1      -5.511  19.011  66.476  0.00  0.00    +0.175 C 
BRANCH  57  59
ATOM     58  C   UNL     1      -4.166  17.472  68.011  0.00  0.00    +0.422 C 
ATOM     59  N   UNL     1      -4.766  17.665  66.783  0.00  0.00    -0.161 NA
ATOM     60  O   UNL     1      -4.813  17.834  69.010  0.00  0.00    -0.225 OA
BRANCH  58  62
ATOM     61  C   UNL     1      -3.846  15.392  68.713  0.00  0.00    +0.257 C 
ATOM     62  O   UNL     1      -3.355  16.348  68.218  0.00  0.00    -0.429 OA
ENDBRANCH  58  62
ENDBRANCH  57  59
BRANCH  57  63
ATOM     63  C   UNL     1      -5.161  19.037  64.869  0.00  0.00    +0.029 C 
ATOM     64  C   UNL     1      -3.645  19.263  64.823  0.00  0.00    +0.002 C 
ATOM     65  C   UNL     1      -5.643  20.396  64.359  0.00  0.00    +0.002 C 
ENDBRANCH  57  63
ENDBRANCH  48  57
ENDBRANCH  43  50
ENDBRANCH   1  45
TORSDOF 12
ENDMDL
MODEL 7
REMARK VINA RESULT:      -6.8      4.651      5.916
REMARK  Name = 
REMARK  12 active torsions:
REMARK  status: ('A' for Active; 'I' for Inactive)
REMARK    1  A    between atoms: O_2  and  C_3
REMARK    2  A    between atoms: N_5  and  C_6
REMARK    3  A    between atoms: C_6  and  C_7
REMARK    4  A    between atoms: C_6  and  C_63
REMARK    5  A    between atoms: C_15  and  C_16
REMARK    6  A    between atoms: C_19  and  C_20
REMARK    7  A    between atoms: C_31  and  C_32
REMARK    8  A    between atoms: C_37  and  C_38
REMARK    9  A    between atoms: C_45  and  C_47
REMARK   10  A    between atoms: C_47  and  N_48
REMARK   11  A    between atoms: C_47  and  C_53
REMARK   12  A    between atoms: C_49  and  O_51
REMARK                            x       y       z     vdW  Elec       q    Type
REMARK                         _______ _______ _______ _____ _____    ______ ____
ROOT
ATOM      1  C   UNL     1     -10.729  15.505  66.259  0.00  0.00    +0.019 A 
ATOM      2  C   UNL     1     -11.125  14.549  67.186  0.00  0.00    +0.003 A 
ATOM      3  C   UNL     1     -11.084  13.181  66.918  0.00  0.00    +0.042 A 
ATOM      4  C   UNL     1     -10.868  12.012  67.828  0.00  0.00    +0.301 C 
ATOM      5  C   UNL     1      -9.847  11.150  67.149  0.00  0.00    +0.042 A 
ATOM      6  C   UNL     1      -9.714  11.629  65.851  0.00  0.00    +0.001 A 
ATOM      7  C   UNL     1      -8.868  10.939  64.991  0.00  0.00    -0.000 A 
ATOM      8  C   UNL     1      -8.479   9.650  65.338  0.00  0.00    -0.000 A 
ATOM      9  C   UNL     1      -9.080   8.958  66.386  0.00  0.00    -0.000 A 
ATOM     10  C   UNL     1      -9.661   9.784  67.340  0.00  0.00    +0.001 A 
ATOM     11  F   UNL     1     -12.042  11.345  68.062  0.00  0.00    -0.195 F 
ATOM     12  F   UNL     1     -10.350  12.417  69.042  0.00  0.00    -0.195 F 
ATOM     13  C   UNL     1     -10.662  12.739  65.669  0.00  0.00    +0.001 A 
ATOM     14  C   UNL     1     -10.784  13.690  64.660  0.00  0.00    -0.000 A 
ATOM     15  C   UNL     1     -10.789  15.054  64.943  0.00  0.00    +0.002 A 
ENDROOT
BRANCH   9  16
ATOM     16  C   UNL     1      -9.670   7.619  66.163  0.00  0.00    +0.002 A 
ATOM     17  C   UNL     1      -8.920   6.596  65.584  0.00  0.00    +0.021 A 
ATOM     18  C   UNL     1      -8.736   5.373  66.184  0.00  0.00    +0.100 A 
ATOM     19  C   UNL     1      -9.796   4.946  66.977  0.00  0.00    +0.100 A 
ATOM     20  N   UNL     1      -9.423   3.731  67.377  0.00  0.00    -0.228 NA
ATOM     21  C   UNL     1      -8.401   3.295  66.588  0.00  0.00    +0.157 A 
ATOM     22  C   UNL     1     -10.808   5.824  67.341  0.00  0.00    +0.021 A 
ATOM     23  N   UNL     1      -7.760   4.442  66.261  0.00  0.00    -0.228 NA
ATOM     24  C   UNL     1     -10.651   7.172  67.039  0.00  0.00    +0.002 A 
BRANCH  21  25
ATOM     25  C   UNL     1      -7.618   2.172  67.436  0.00  0.00    +0.134 C 
ATOM     26  N   UNL     1      -7.940   1.007  66.466  0.00  0.00    -0.275 N 
ATOM     27  C   UNL     1      -8.289   1.149  65.086  0.00  0.00    +0.246 C 
ATOM     28  O   UNL     1      -7.716   2.037  64.470  0.00  0.00    -0.273 OA
ATOM     29  C   UNL     1      -6.682   0.117  66.805  0.00  0.00    +0.076 C 
ATOM     30  C   UNL     1      -5.837   1.193  65.935  0.00  0.00    +0.022 C 
ATOM     31  C   UNL     1      -6.288   0.729  68.280  0.00  0.00    +0.020 C 
ATOM     32  C   UNL     1      -5.332   1.821  67.998  0.00  0.00    +0.004 C 
ATOM     33  C   UNL     1      -6.096   2.540  66.758  0.00  0.00    +0.027 C 
BRANCH  27  34
ATOM     34  C   UNL     1      -9.786   0.716  64.696  0.00  0.00    +0.175 C 
BRANCH  34  35
ATOM     35  C   UNL     1      -9.283  -0.739  64.117  0.00  0.00    +0.029 C 
ATOM     36  C   UNL     1      -9.696  -1.778  65.108  0.00  0.00    +0.002 C 
ATOM     37  C   UNL     1     -10.102  -0.962  62.861  0.00  0.00    +0.002 C 
ENDBRANCH  34  35
BRANCH  34  38
ATOM     38  N   UNL     1      -9.786   1.360  63.256  0.00  0.00    -0.161 NA
ATOM     39  C   UNL     1     -10.629   2.467  63.073  0.00  0.00    +0.422 C 
ATOM     40  O   UNL     1     -10.868   3.191  64.075  0.00  0.00    -0.225 OA
BRANCH  39  41
ATOM     41  O   UNL     1     -11.086   2.922  61.849  0.00  0.00    -0.429 OA
ATOM     42  C   UNL     1     -10.905   4.288  61.486  0.00  0.00    +0.257 C 
ENDBRANCH  39  41
ENDBRANCH  34  38
ENDBRANCH  27  34
ENDBRANCH  21  25
ENDBRANCH   9  16
BRANCH   1  45
ATOM     43  C   UNL     1      -7.816  17.272  67.402  0.00  0.00    +0.157 A 
ATOM     44  N   UNL     1      -8.447  16.585  66.408  0.00  0.00    -0.227 NA
ATOM     45  C   UNL     1      -9.782  16.578  66.628  0.00  0.00    +0.102 A 
ATOM     46  C   UNL     1      -9.914  17.475  67.686  0.00  0.00    +0.119 A 
ATOM     47  N   UNL     1      -8.739  17.325  68.347  0.00  0.00    -0.226 NA
BRANCH  43  50
ATOM     48  C   UNL     1      -5.999  18.668  65.782  0.00  0.00    +0.246 C 
ATOM     49  N   UNL     1      -5.706  18.159  67.032  0.00  0.00    -0.273 N 
ATOM     50  C   UNL     1      -6.283  16.821  67.619  0.00  0.00    +0.134 C 
ATOM     51  C   UNL     1      -6.215  17.325  69.184  0.00  0.00    +0.029 C 
ATOM     52  C   UNL     1      -6.101  18.753  69.086  0.00  0.00    +0.020 C 
ATOM     53  C   UNL     1      -5.902  19.483  70.361  0.00  0.00    +0.002 C 
ATOM     54  C   UNL     1      -6.827  19.931  69.320  0.00  0.00    +0.002 C 
ATOM     55  C   UNL     1      -4.960  18.791  68.072  0.00  0.00    +0.094 C 
ATOM     56  O   UNL     1      -7.019  18.453  65.128  0.00  0.00    -0.273 OA
BRANCH  48  57
ATOM     57  C   UNL     1      -4.696  19.217  65.001  0.00  0.00    +0.175 C 
BRANCH  57  59
ATOM     58  C   UNL     1      -3.004  17.309  64.820  0.00  0.00    +0.422 C 
ATOM     59  N   UNL     1      -4.289  17.760  64.588  0.00  0.00    -0.161 NA
ATOM     60  O   UNL     1      -2.507  17.590  65.925  0.00  0.00    -0.225 OA
BRANCH  58  62
ATOM     61  C   UNL     1      -2.352  16.022  63.136  0.00  0.00    +0.257 C 
ATOM     62  O   UNL     1      -2.596  16.077  64.293  0.00  0.00    -0.429 OA
ENDBRANCH  58  62
ENDBRANCH  57  59
BRANCH  57  63
ATOM     63  C   UNL     1      -5.528  19.560  63.624  0.00  0.00    +0.029 C 
ATOM     64  C   UNL     1      -4.708  18.887  62.518  0.00  0.00    +0.002 C 
ATOM     65  C   UNL     1      -5.234  21.027  63.312  0.00  0.00    +0.002 C 
ENDBRANCH  57  63
ENDBRANCH  48  57
ENDBRANCH  43  50
ENDBRANCH   1  45
TORSDOF 12
ENDMDL
MODEL 8
REMARK VINA RESULT:      -6.8      3.022      5.053
REMARK  Name = 
REMARK  12 active torsions:
REMARK  status: ('A' for Active; 'I' for Inactive)
REMARK    1  A    between atoms: O_2  and  C_3
REMARK    2  A    between atoms: N_5  and  C_6
REMARK    3  A    between atoms: C_6  and  C_7
REMARK    4  A    between atoms: C_6  and  C_63
REMARK    5  A    between atoms: C_15  and  C_16
REMARK    6  A    between atoms: C_19  and  C_20
REMARK    7  A    between atoms: C_31  and  C_32
REMARK    8  A    between atoms: C_37  and  C_38
REMARK    9  A    between atoms: C_45  and  C_47
REMARK   10  A    between atoms: C_47  and  N_48
REMARK   11  A    between atoms: C_47  and  C_53
REMARK   12  A    between atoms: C_49  and  O_51
REMARK                            x       y       z     vdW  Elec       q    Type
REMARK                         _______ _______ _______ _____ _____    ______ ____
ROOT
ATOM      1  C   UNL     1     -10.244  15.930  66.187  0.00  0.00    +0.019 A 
ATOM      2  C   UNL     1     -10.376  15.125  67.311  0.00  0.00    +0.003 A 
ATOM      3  C   UNL     1     -10.332  13.733  67.246  0.00  0.00    +0.042 A 
ATOM      4  C   UNL     1      -9.863  12.721  68.246  0.00  0.00    +0.301 C 
ATOM      5  C   UNL     1      -8.980  11.777  67.486  0.00  0.00    +0.042 A 
ATOM      6  C   UNL     1      -9.164  12.051  66.136  0.00  0.00    +0.001 A 
ATOM      7  C   UNL     1      -8.501  11.246  65.217  0.00  0.00    -0.000 A 
ATOM      8  C   UNL     1      -7.984  10.031  65.653  0.00  0.00    -0.000 A 
ATOM      9  C   UNL     1      -8.302   9.502  66.901  0.00  0.00    -0.000 A 
ATOM     10  C   UNL     1      -8.692  10.459  67.829  0.00  0.00    +0.001 A 
ATOM     11  F   UNL     1     -10.921  12.084  68.838  0.00  0.00    -0.195 F 
ATOM     12  F   UNL     1      -9.105  13.315  69.235  0.00  0.00    -0.195 F 
ATOM     13  C   UNL     1     -10.181  13.108  66.013  0.00  0.00    +0.001 A 
ATOM     14  C   UNL     1     -10.570  13.889  64.930  0.00  0.00    -0.000 A 
ATOM     15  C   UNL     1     -10.576  15.280  65.001  0.00  0.00    +0.002 A 
ENDROOT
BRANCH   9  16
ATOM     16  C   UNL     1      -8.863   8.138  67.019  0.00  0.00    +0.002 A 
ATOM     17  C   UNL     1      -8.322   7.220  67.918  0.00  0.00    +0.021 A 
ATOM     18  C   UNL     1      -9.071   6.589  68.883  0.00  0.00    +0.100 A 
ATOM     19  C   UNL     1     -10.397   6.355  68.534  0.00  0.00    +0.100 A 
ATOM     20  N   UNL     1     -10.885   5.680  69.574  0.00  0.00    -0.228 NA
ATOM     21  C   UNL     1      -9.850   5.205  70.323  0.00  0.00    +0.157 A 
ATOM     22  C   UNL     1     -10.957   6.973  67.422  0.00  0.00    +0.021 A 
ATOM     23  N   UNL     1      -8.892   6.145  70.146  0.00  0.00    -0.228 NA
ATOM     24  C   UNL     1     -10.217   7.954  66.771  0.00  0.00    +0.002 A 
BRANCH  21  25
ATOM     25  C   UNL     1     -10.438   4.951  71.800  0.00  0.00    +0.134 C 
ATOM     26  N   UNL     1     -10.119   3.434  71.823  0.00  0.00    -0.275 N 
ATOM     27  C   UNL     1      -9.133   2.781  71.017  0.00  0.00    +0.246 C 
ATOM     28  O   UNL     1      -8.102   3.404  70.809  0.00  0.00    -0.273 OA
ATOM     29  C   UNL     1      -9.985   3.285  73.388  0.00  0.00    +0.076 C 
ATOM     30  C   UNL     1      -8.556   4.033  73.215  0.00  0.00    +0.022 C 
ATOM     31  C   UNL     1     -10.825   4.613  73.874  0.00  0.00    +0.020 C 
ATOM     32  C   UNL     1      -9.816   5.689  73.976  0.00  0.00    +0.004 C 
ATOM     33  C   UNL     1      -9.006   5.435  72.590  0.00  0.00    +0.027 C 
BRANCH  27  34
ATOM     34  C   UNL     1      -9.698   1.745  69.926  0.00  0.00    +0.175 C 
BRANCH  34  35
ATOM     35  C   UNL     1      -9.103   0.453  70.750  0.00  0.00    +0.029 C 
ATOM     36  C   UNL     1     -10.189  -0.035  71.654  0.00  0.00    +0.002 C 
ATOM     37  C   UNL     1      -8.882  -0.613  69.695  0.00  0.00    +0.002 C 
ENDBRANCH  34  35
BRANCH  34  38
ATOM     38  N   UNL     1      -8.443   1.794  68.971  0.00  0.00    -0.161 NA
ATOM     39  C   UNL     1      -8.673   2.267  67.670  0.00  0.00    +0.422 C 
ATOM     40  O   UNL     1      -9.607   3.093  67.505  0.00  0.00    -0.225 OA
BRANCH  39  41
ATOM     41  O   UNL     1      -7.852   2.025  66.582  0.00  0.00    -0.429 OA
ATOM     42  C   UNL     1      -7.577   0.685  66.183  0.00  0.00    +0.257 C 
ENDBRANCH  39  41
ENDBRANCH  34  38
ENDBRANCH  27  34
ENDBRANCH  21  25
ENDBRANCH   9  16
BRANCH   1  45
ATOM     43  C   UNL     1      -7.317  17.963  66.654  0.00  0.00    +0.157 A 
ATOM     44  N   UNL     1      -7.955  16.982  65.955  0.00  0.00    -0.227 NA
ATOM     45  C   UNL     1      -9.290  17.059  66.166  0.00  0.00    +0.102 A 
ATOM     46  C   UNL     1      -9.413  18.264  66.857  0.00  0.00    +0.119 A 
ATOM     47  N   UNL     1      -8.236  18.340  67.527  0.00  0.00    -0.226 NA
BRANCH  43  50
ATOM     48  C   UNL     1      -5.465  19.057  64.851  0.00  0.00    +0.246 C 
ATOM     49  N   UNL     1      -5.211  18.813  66.187  0.00  0.00    -0.273 N 
ATOM     50  C   UNL     1      -5.786  17.603  67.008  0.00  0.00    +0.134 C 
ATOM     51  C   UNL     1      -5.787  18.408  68.443  0.00  0.00    +0.029 C 
ATOM     52  C   UNL     1      -5.695  19.791  68.067  0.00  0.00    +0.020 C 
ATOM     53  C   UNL     1      -5.559  20.763  69.178  0.00  0.00    +0.002 C 
ATOM     54  C   UNL     1      -6.451  20.973  68.038  0.00  0.00    +0.002 C 
ATOM     55  C   UNL     1      -4.517  19.657  67.105  0.00  0.00    +0.094 C 
ATOM     56  O   UNL     1      -6.455  18.691  64.219  0.00  0.00    -0.273 OA
BRANCH  48  57
ATOM     57  C   UNL     1      -4.143  19.474  64.022  0.00  0.00    +0.175 C 
BRANCH  57  59
ATOM     58  C   UNL     1      -2.939  17.236  63.744  0.00  0.00    +0.422 C 
ATOM     59  N   UNL     1      -4.023  18.029  63.424  0.00  0.00    -0.161 NA
ATOM     60  O   UNL     1      -2.587  17.231  64.937  0.00  0.00    -0.225 OA
BRANCH  58  62
ATOM     61  C   UNL     1      -2.791  16.027  61.890  0.00  0.00    +0.257 C 
ATOM     62  O   UNL     1      -2.745  16.022  63.073  0.00  0.00    -0.429 OA
ENDBRANCH  58  62
ENDBRANCH  57  59
BRANCH  57  63
ATOM     63  C   UNL     1      -4.996  20.109  62.766  0.00  0.00    +0.029 C 
ATOM     64  C   UNL     1      -4.294  19.552  61.522  0.00  0.00    +0.002 C 
ATOM     65  C   UNL     1      -4.572  21.575  62.672  0.00  0.00    +0.002 C 
ENDBRANCH  57  63
ENDBRANCH  48  57
ENDBRANCH  43  50
ENDBRANCH   1  45
TORSDOF 12
ENDMDL
MODEL 9
REMARK VINA RESULT:      -6.8      1.948      2.598
REMARK  Name = 
REMARK  12 active torsions:
REMARK  status: ('A' for Active; 'I' for Inactive)
REMARK    1  A    between atoms: O_2  and  C_3
REMARK    2  A    between atoms: N_5  and  C_6
REMARK    3  A    between atoms: C_6  and  C_7
REMARK    4  A    between atoms: C_6  and  C_63
REMARK    5  A    between atoms: C_15  and  C_16
REMARK    6  A    between atoms: C_19  and  C_20
REMARK    7  A    between atoms: C_31  and  C_32
REMARK    8  A    between atoms: C_37  and  C_38
REMARK    9  A    between atoms: C_45  and  C_47
REMARK   10  A    between atoms: C_47  and  N_48
REMARK   11  A    between atoms: C_47  and  C_53
REMARK   12  A    between atoms: C_49  and  O_51
REMARK                            x       y       z     vdW  Elec       q    Type
REMARK                         _______ _______ _______ _____ _____    ______ ____
ROOT
ATOM      1  C   UNL     1     -10.774  12.310  66.514  0.00  0.00    +0.019 A 
ATOM      2  C   UNL     1     -11.500  11.923  67.634  0.00  0.00    +0.003 A 
ATOM      3  C   UNL     1     -11.167  10.802  68.393  0.00  0.00    +0.042 A 
ATOM      4  C   UNL     1     -11.351  10.519  69.852  0.00  0.00    +0.301 C 
ATOM      5  C   UNL     1     -10.036   9.984  70.332  0.00  0.00    +0.042 A 
ATOM      6  C   UNL     1      -9.273   9.714  69.202  0.00  0.00    +0.001 A 
ATOM      7  C   UNL     1      -8.025   9.132  69.389  0.00  0.00    -0.000 A 
ATOM      8  C   UNL     1      -7.746   8.543  70.616  0.00  0.00    -0.000 A 
ATOM      9  C   UNL     1      -8.737   8.321  71.567  0.00  0.00    -0.000 A 
ATOM     10  C   UNL     1      -9.832   9.167  71.441  0.00  0.00    +0.001 A 
ATOM     11  F   UNL     1     -12.380   9.638  70.058  0.00  0.00    -0.195 F 
ATOM     12  F   UNL     1     -11.625  11.676  70.552  0.00  0.00    -0.195 F 
ATOM     13  C   UNL     1     -10.087  10.012  68.013  0.00  0.00    +0.001 A 
ATOM     14  C   UNL     1      -9.747  10.125  66.669  0.00  0.00    -0.000 A 
ATOM     15  C   UNL     1     -10.058  11.267  65.934  0.00  0.00    +0.002 A 
ENDROOT
BRANCH   9  16
ATOM     16  C   UNL     1      -8.957   6.967  72.124  0.00  0.00    +0.002 A 
ATOM     17  C   UNL     1      -9.661   6.005  71.403  0.00  0.00    +0.021 A 
ATOM     18  C   UNL     1      -9.143   4.767  71.104  0.00  0.00    +0.100 A 
ATOM     19  C   UNL     1      -8.259   4.259  72.051  0.00  0.00    +0.100 A 
ATOM     20  N   UNL     1      -7.959   3.046  71.588  0.00  0.00    -0.228 NA
ATOM     21  C   UNL     1      -8.875   2.690  70.643  0.00  0.00    +0.157 A 
ATOM     22  C   UNL     1      -7.746   5.075  73.051  0.00  0.00    +0.021 A 
ATOM     23  N   UNL     1      -9.216   3.878  70.089  0.00  0.00    -0.228 NA
ATOM     24  C   UNL     1      -8.000   6.441  72.983  0.00  0.00    +0.002 A 
BRANCH  21  25
ATOM     25  C   UNL     1      -8.171   1.570  69.726  0.00  0.00    +0.134 C 
ATOM     26  N   UNL     1      -8.528   0.380  70.653  0.00  0.00    -0.275 N 
ATOM     27  C   UNL     1      -9.596   0.360  71.605  0.00  0.00    +0.246 C 
ATOM     28  O   UNL     1     -10.624   0.937  71.279  0.00  0.00    -0.273 OA
ATOM     29  C   UNL     1      -8.531  -0.740  69.541  0.00  0.00    +0.076 C 
ATOM     30  C   UNL     1      -9.949  -0.104  69.076  0.00  0.00    +0.022 C 
ATOM     31  C   UNL     1      -7.617  -0.002  68.390  0.00  0.00    +0.020 C 
ATOM     32  C   UNL     1      -8.584   0.724  67.540  0.00  0.00    +0.004 C 
ATOM     33  C   UNL     1      -9.516   1.388  68.694  0.00  0.00    +0.027 C 
BRANCH  27  34
ATOM     34  C   UNL     1      -9.155   0.282  73.148  0.00  0.00    +0.175 C 
BRANCH  34  35
ATOM     35  C   UNL     1     -10.328  -0.817  73.494  0.00  0.00    +0.029 C 
ATOM     36  C   UNL     1     -10.051  -2.035  72.674  0.00  0.00    +0.002 C 
ATOM     37  C   UNL     1     -10.097  -1.189  74.945  0.00  0.00    +0.002 C 
ENDBRANCH  34  35
BRANCH  34  38
ATOM     38  N   UNL     1     -10.047   1.485  73.646  0.00  0.00    -0.161 NA
ATOM     39  C   UNL     1      -9.568   2.189  74.762  0.00  0.00    +0.422 C 
ATOM     40  O   UNL     1      -8.323   2.228  74.938  0.00  0.00    -0.225 OA
BRANCH  39  41
ATOM     41  O   UNL     1     -10.343   2.982  75.590  0.00  0.00    -0.429 OA
ATOM     42  C   UNL     1      -9.852   4.247  76.027  0.00  0.00    +0.257 C 
ENDBRANCH  39  41
ENDBRANCH  34  38
ENDBRANCH  27  34
ENDBRANCH  21  25
ENDBRANCH   9  16
BRANCH   1  45
ATOM     43  C   UNL     1      -9.746  15.688  67.188  0.00  0.00    +0.157 A 
ATOM     44  N   UNL     1      -9.439  14.360  67.159  0.00  0.00    -0.227 NA
ATOM     45  C   UNL     1     -10.307  13.703  66.354  0.00  0.00    +0.102 A 
ATOM     46  C   UNL     1     -11.004  14.750  65.752  0.00  0.00    +0.119 A 
ATOM     47  N   UNL     1     -10.979  15.709  66.710  0.00  0.00    -0.226 NA
BRANCH  43  50
ATOM     48  C   UNL     1      -7.180  16.803  66.974  0.00  0.00    +0.246 C 
ATOM     49  N   UNL     1      -8.188  17.302  67.775  0.00  0.00    -0.273 N 
ATOM     50  C   UNL     1      -9.253  16.429  68.532  0.00  0.00    +0.134 C 
ATOM     51  C   UNL     1     -10.425  17.584  68.486  0.00  0.00    +0.029 C 
ATOM     52  C   UNL     1      -9.983  18.488  67.461  0.00  0.00    +0.020 C 
ATOM     53  C   UNL     1     -10.798  19.712  67.273  0.00  0.00    +0.002 C 
ATOM     54  C   UNL     1     -10.295  18.907  66.159  0.00  0.00    +0.002 C 
ATOM     55  C   UNL     1      -8.552  18.670  67.961  0.00  0.00    +0.094 C 
ATOM     56  O   UNL     1      -7.190  15.730  66.373  0.00  0.00    -0.273 OA
BRANCH  48  57
ATOM     57  C   UNL     1      -5.754  17.518  67.233  0.00  0.00    +0.175 C 
BRANCH  57  59
ATOM     58  C   UNL     1      -4.137  15.590  67.681  0.00  0.00    +0.422 C 
ATOM     59  N   UNL     1      -4.988  16.221  66.795  0.00  0.00    -0.161 NA
ATOM     60  O   UNL     1      -4.542  15.467  68.850  0.00  0.00    -0.225 OA
BRANCH  58  62
ATOM     61  C   UNL     1      -2.226  14.463  67.668  0.00  0.00    +0.257 C 
ATOM     62  O   UNL     1      -3.323  14.541  67.231  0.00  0.00    -0.429 OA
ENDBRANCH  58  62
ENDBRANCH  57  59
BRANCH  57  63
ATOM     63  C   UNL     1      -5.724  18.242  65.756  0.00  0.00    +0.029 C 
ATOM     64  C   UNL     1      -4.354  17.860  65.185  0.00  0.00    +0.002 C 
ATOM     65  C   UNL     1      -5.490  19.729  66.025  0.00  0.00    +0.002 C 
ENDBRANCH  57  63
ENDBRANCH  48  57
ENDBRANCH  43  50
ENDBRANCH   1  45
TORSDOF 12
ENDMDL
