MODEL 1
REMARK VINA RESULT:      -4.7      0.000      0.000
REMARK  Name = 
REMARK  3 active torsions:
REMARK  status: ('A' for Active; 'I' for Inactive)
REMARK    1  A    between atoms: N_2  and  C_3
REMARK    2  A    between atoms: C_3  and  C_5
REMARK    3  A    between atoms: C_5  and  C_7
REMARK                            x       y       z     vdW  Elec       q    Type
REMARK                         _______ _______ _______ _____ _____    ______ ____
ROOT
ATOM      1  C   UNL     1     -11.950  15.693  69.317  0.00  0.00    +0.190 C 
ATOM      2  O   UNL     1     -10.780  16.460  69.912  0.00  0.00    -0.217 OA
ENDROOT
BRANCH   1   3
ATOM      3  C   UNL     1     -12.423  15.210  70.757  0.00  0.00    +0.009 A 
ATOM      4  C   UNL     1     -11.841  16.137  71.633  0.00  0.00    -0.002 A 
ATOM      5  C   UNL     1     -12.172  16.084  72.987  0.00  0.00    -0.000 A 
ATOM      6  C   UNL     1     -12.841  14.936  73.394  0.00  0.00    -0.000 A 
ATOM      7  C   UNL     1     -13.700  14.342  72.479  0.00  0.00    -0.000 A 
ATOM      8  C   UNL     1     -13.510  14.680  71.180  0.00  0.00    -0.002 A 
ENDBRANCH   1   3
BRANCH   1   9
ATOM      9  C   UNL     1     -10.913  14.382  68.889  0.00  0.00    +0.107 C 
ATOM     10  C   UNL     1     -10.397  15.058  67.499  0.00  0.00    +0.022 C 
BRANCH   9  12
ATOM     11  C   UNL     1     -11.514  12.187  68.626  0.00  0.00    +0.108 C 
ATOM     12  N   UNL     1     -11.995  13.467  68.234  0.00  0.00    -0.215 NA
ENDBRANCH   9  12
ENDBRANCH   1   9
TORSDOF 3
ENDMDL
MODEL 2
REMARK VINA RESULT:      -4.6      1.797      2.701
REMARK  Name = 
REMARK  3 active torsions:
REMARK  status: ('A' for Active; 'I' for Inactive)
REMARK    1  A    between atoms: N_2  and  C_3
REMARK    2  A    between atoms: C_3  and  C_5
REMARK    3  A    between atoms: C_5  and  C_7
REMARK                            x       y       z     vdW  Elec       q    Type
REMARK                         _______ _______ _______ _____ _____    ______ ____
ROOT
ATOM      1  C   UNL     1     -11.003  14.794  69.588  0.00  0.00    +0.190 C 
ATOM      2  O   UNL     1     -11.994  13.767  69.066  0.00  0.00    -0.217 OA
ENDROOT
BRANCH   1   3
ATOM      3  C   UNL     1     -11.918  15.099  70.853  0.00  0.00    +0.009 A 
ATOM      4  C   UNL     1     -12.604  13.896  71.073  0.00  0.00    -0.002 A 
ATOM      5  C   UNL     1     -13.402  13.774  72.210  0.00  0.00    -0.000 A 
ATOM      6  C   UNL     1     -13.666  14.961  72.885  0.00  0.00    -0.000 A 
ATOM      7  C   UNL     1     -12.676  15.933  72.873  0.00  0.00    -0.000 A 
ATOM      8  C   UNL     1     -11.738  15.815  71.901  0.00  0.00    -0.002 A 
ENDBRANCH   1   3
BRANCH   1   9
ATOM      9  C   UNL     1     -11.605  15.981  68.491  0.00  0.00    +0.107 C 
ATOM     10  C   UNL     1     -10.692  15.489  67.235  0.00  0.00    +0.022 C 
BRANCH   9  12
ATOM     11  C   UNL     1     -10.518  17.825  67.676  0.00  0.00    +0.108 C 
ATOM     12  N   UNL     1     -10.671  17.155  68.922  0.00  0.00    -0.215 NA
ENDBRANCH   9  12
ENDBRANCH   1   9
TORSDOF 3
ENDMDL
MODEL 3
REMARK VINA RESULT:      -4.4      1.563      4.502
REMARK  Name = 
REMARK  3 active torsions:
REMARK  status: ('A' for Active; 'I' for Inactive)
REMARK    1  A    between atoms: N_2  and  C_3
REMARK    2  A    between atoms: C_3  and  C_5
REMARK    3  A    between atoms: C_5  and  C_7
REMARK                            x       y       z     vdW  Elec       q    Type
REMARK                         _______ _______ _______ _____ _____    ______ ____
ROOT
ATOM      1  C   UNL     1     -11.411  15.095  69.962  0.00  0.00    +0.190 C 
ATOM      2  O   UNL     1     -11.897  16.282  69.146  0.00  0.00    -0.217 OA
ENDROOT
BRANCH   1   3
ATOM      3  C   UNL     1     -11.656  14.101  68.744  0.00  0.00    +0.009 A 
ATOM      4  C   UNL     1     -11.621  14.933  67.616  0.00  0.00    -0.002 A 
ATOM      5  C   UNL     1     -11.666  14.351  66.349  0.00  0.00    -0.000 A 
ATOM      6  C   UNL     1     -12.021  13.007  66.320  0.00  0.00    -0.000 A 
ATOM      7  C   UNL     1     -11.628  12.222  67.396  0.00  0.00    -0.000 A 
ATOM      8  C   UNL     1     -11.300  12.889  68.530  0.00  0.00    -0.002 A 
ENDBRANCH   1   3
BRANCH   1   9
ATOM      9  C   UNL     1     -12.939  14.976  70.755  0.00  0.00    +0.107 C 
ATOM     10  C   UNL     1     -12.500  15.872  72.043  0.00  0.00    +0.022 C 
BRANCH   9  12
ATOM     11  C   UNL     1     -13.835  13.550  72.307  0.00  0.00    +0.108 C 
ATOM     12  N   UNL     1     -12.712  13.590  71.436  0.00  0.00    -0.215 NA
ENDBRANCH   9  12
ENDBRANCH   1   9
TORSDOF 3
ENDMDL
MODEL 4
REMARK VINA RESULT:      -4.3      1.965      2.710
REMARK  Name = 
REMARK  3 active torsions:
REMARK  status: ('A' for Active; 'I' for Inactive)
REMARK    1  A    between atoms: N_2  and  C_3
REMARK    2  A    between atoms: C_3  and  C_5
REMARK    3  A    between atoms: C_5  and  C_7
REMARK                            x       y       z     vdW  Elec       q    Type
REMARK                         _______ _______ _______ _____ _____    ______ ____
ROOT
ATOM      1  C   UNL     1     -11.256  13.298  69.208  0.00  0.00    +0.190 C 
ATOM      2  O   UNL     1     -11.901  11.927  69.330  0.00  0.00    -0.217 OA
ENDROOT
BRANCH   1   3
ATOM      3  C   UNL     1     -12.349  13.946  70.164  0.00  0.00    +0.009 A 
ATOM      4  C   UNL     1     -12.662  12.920  71.066  0.00  0.00    -0.002 A 
ATOM      5  C   UNL     1     -13.503  13.202  72.142  0.00  0.00    -0.000 A 
ATOM      6  C   UNL     1     -14.181  14.414  72.071  0.00  0.00    -0.000 A 
ATOM      7  C   UNL     1     -13.532  15.468  71.443  0.00  0.00    -0.000 A 
ATOM      8  C   UNL     1     -12.504  15.132  70.625  0.00  0.00    -0.002 A 
ENDBRANCH   1   3
BRANCH   1   9
ATOM      9  C   UNL     1     -12.012  13.551  67.677  0.00  0.00    +0.107 C 
ATOM     10  C   UNL     1     -10.987  12.589  66.853  0.00  0.00    +0.022 C 
BRANCH   9  12
ATOM     11  C   UNL     1     -11.306  14.805  65.895  0.00  0.00    +0.108 C 
ATOM     12  N   UNL     1     -11.301  14.893  67.315  0.00  0.00    -0.215 NA
ENDBRANCH   9  12
ENDBRANCH   1   9
TORSDOF 3
ENDMDL
MODEL 5
REMARK VINA RESULT:      -4.3      4.703      5.565
REMARK  Name = 
REMARK  3 active torsions:
REMARK  status: ('A' for Active; 'I' for Inactive)
REMARK    1  A    between atoms: N_2  and  C_3
REMARK    2  A    between atoms: C_3  and  C_5
REMARK    3  A    between atoms: C_5  and  C_7
REMARK                            x       y       z     vdW  Elec       q    Type
REMARK                         _______ _______ _______ _____ _____    ______ ____
ROOT
ATOM      1  C   UNL     1     -10.744  16.286  66.350  0.00  0.00    +0.190 C 
ATOM      2  O   UNL     1     -10.696  16.889  64.956  0.00  0.00    -0.217 OA
ENDROOT
BRANCH   1   3
ATOM      3  C   UNL     1     -10.174  17.623  66.996  0.00  0.00    +0.009 A 
ATOM      4  C   UNL     1     -10.475  18.612  66.049  0.00  0.00    -0.002 A 
ATOM      5  C   UNL     1     -10.229  19.947  66.368  0.00  0.00    -0.000 A 
ATOM      6  C   UNL     1      -9.448  20.158  67.498  0.00  0.00    -0.000 A 
ATOM      7  C   UNL     1      -9.566  19.241  68.533  0.00  0.00    -0.000 A 
ATOM      8  C   UNL     1     -10.104  18.041  68.206  0.00  0.00    -0.002 A 
ENDBRANCH   1   3
BRANCH   1   9
ATOM      9  C   UNL     1      -9.267  15.439  66.068  0.00  0.00    +0.107 C 
ATOM     10  C   UNL     1      -9.974  14.163  65.340  0.00  0.00    +0.022 C 
BRANCH   9  12
ATOM     11  C   UNL     1      -7.803  14.289  67.402  0.00  0.00    +0.108 C 
ATOM     12  N   UNL     1      -9.139  14.773  67.474  0.00  0.00    -0.215 NA
ENDBRANCH   9  12
ENDBRANCH   1   9
TORSDOF 3
ENDMDL
MODEL 6
REMARK VINA RESULT:      -4.2      3.055      4.850
REMARK  Name = 
REMARK  3 active torsions:
REMARK  status: ('A' for Active; 'I' for Inactive)
REMARK    1  A    between atoms: N_2  and  C_3
REMARK    2  A    between atoms: C_3  and  C_5
REMARK    3  A    between atoms: C_5  and  C_7
REMARK                            x       y       z     vdW  Elec       q    Type
REMARK                         _______ _______ _______ _____ _____    ______ ____
ROOT
ATOM      1  C   UNL     1     -10.096  15.717  68.256  0.00  0.00    +0.190 C 
ATOM      2  O   UNL     1     -10.641  16.199  69.591  0.00  0.00    -0.217 OA
ENDROOT
BRANCH   1   3
ATOM      3  C   UNL     1     -10.319  17.149  67.599  0.00  0.00    +0.009 A 
ATOM      4  C   UNL     1      -9.980  18.047  68.620  0.00  0.00    -0.002 A 
ATOM      5  C   UNL     1      -9.933  19.411  68.330  0.00  0.00    -0.000 A 
ATOM      6  C   UNL     1     -10.498  19.784  67.116  0.00  0.00    -0.000 A 
ATOM      7  C   UNL     1     -10.403  18.880  66.066  0.00  0.00    -0.000 A 
ATOM      8  C   UNL     1     -10.142  17.595  66.410  0.00  0.00    -0.002 A 
ENDBRANCH   1   3
BRANCH   1   9
ATOM      9  C   UNL     1     -11.606  14.976  67.872  0.00  0.00    +0.107 C 
ATOM     10  C   UNL     1     -11.364  13.668  68.814  0.00  0.00    +0.022 C 
BRANCH   9  12
ATOM     11  C   UNL     1     -12.444  13.993  65.980  0.00  0.00    +0.108 C 
ATOM     12  N   UNL     1     -11.170  14.297  66.536  0.00  0.00    -0.215 NA
ENDBRANCH   9  12
ENDBRANCH   1   9
TORSDOF 3
ENDMDL
MODEL 7
REMARK VINA RESULT:      -4.2      3.153      5.596
REMARK  Name = 
REMARK  3 active torsions:
REMARK  status: ('A' for Active; 'I' for Inactive)
REMARK    1  A    between atoms: N_2  and  C_3
REMARK    2  A    between atoms: C_3  and  C_5
REMARK    3  A    between atoms: C_5  and  C_7
REMARK                            x       y       z     vdW  Elec       q    Type
REMARK                         _______ _______ _______ _____ _____    ______ ____
ROOT
ATOM      1  C   UNL     1      -9.767  16.274  66.364  0.00  0.00    +0.190 C 
ATOM      2  O   UNL     1     -10.508  17.082  65.311  0.00  0.00    -0.217 OA
ENDROOT
BRANCH   1   3
ATOM      3  C   UNL     1     -10.784  15.060  66.212  0.00  0.00    +0.009 A 
ATOM      4  C   UNL     1     -11.249  15.171  64.894  0.00  0.00    -0.002 A 
ATOM      5  C   UNL     1     -12.067  14.164  64.382  0.00  0.00    -0.000 A 
ATOM      6  C   UNL     1     -12.576  13.272  65.319  0.00  0.00    -0.000 A 
ATOM      7  C   UNL     1     -11.780  12.983  66.419  0.00  0.00    -0.000 A 
ATOM      8  C   UNL     1     -10.790  13.869  66.686  0.00  0.00    -0.002 A 
ENDBRANCH   1   3
BRANCH   1   9
ATOM      9  C   UNL     1     -10.542  17.155  67.630  0.00  0.00    +0.107 C 
ATOM     10  C   UNL     1      -9.507  18.413  67.579  0.00  0.00    +0.022 C 
BRANCH   9  12
ATOM     11  C   UNL     1     -10.959  16.345  69.731  0.00  0.00    +0.108 C 
ATOM     12  N   UNL     1      -9.859  16.431  68.833  0.00  0.00    -0.215 NA
ENDBRANCH   9  12
ENDBRANCH   1   9
TORSDOF 3
ENDMDL
MODEL 8
REMARK VINA RESULT:      -4.1      2.782      4.037
REMARK  Name = 
REMARK  3 active torsions:
REMARK  status: ('A' for Active; 'I' for Inactive)
REMARK    1  A    between atoms: N_2  and  C_3
REMARK    2  A    between atoms: C_3  and  C_5
REMARK    3  A    between atoms: C_5  and  C_7
REMARK                            x       y       z     vdW  Elec       q    Type
REMARK                         _______ _______ _______ _____ _____    ______ ____
ROOT
ATOM      1  C   UNL     1     -11.090  12.528  67.155  0.00  0.00    +0.190 C 
ATOM      2  O   UNL     1     -11.771  11.169  67.193  0.00  0.00    -0.217 OA
ENDROOT
BRANCH   1   3
ATOM      3  C   UNL     1     -11.692  12.918  68.575  0.00  0.00    +0.009 A 
ATOM      4  C   UNL     1     -11.805  11.692  69.244  0.00  0.00    -0.002 A 
ATOM      5  C   UNL     1     -12.179  11.690  70.588  0.00  0.00    -0.000 A 
ATOM      6  C   UNL     1     -12.676  12.895  71.072  0.00  0.00    -0.000 A 
ATOM      7  C   UNL     1     -12.152  14.061  70.532  0.00  0.00    -0.000 A 
ATOM      8  C   UNL     1     -11.523  13.934  69.338  0.00  0.00    -0.002 A 
ENDBRANCH   1   3
BRANCH   1   9
ATOM      9  C   UNL     1     -12.326  13.153  66.125  0.00  0.00    +0.107 C 
ATOM     10  C   UNL     1     -11.804  12.376  64.791  0.00  0.00    +0.022 C 
BRANCH   9  12
ATOM     11  C   UNL     1     -12.116  14.716  64.465  0.00  0.00    +0.108 C 
ATOM     12  N   UNL     1     -11.648  14.519  65.794  0.00  0.00    -0.215 NA
ENDBRANCH   9  12
ENDBRANCH   1   9
TORSDOF 3
ENDMDL
MODEL 9
REMARK VINA RESULT:      -4.1      4.293      5.676
REMARK  Name = 
REMARK  3 active torsions:
REMARK  status: ('A' for Active; 'I' for Inactive)
REMARK    1  A    between atoms: N_2  and  C_3
REMARK    2  A    between atoms: C_3  and  C_5
REMARK    3  A    between atoms: C_5  and  C_7
REMARK                            x       y       z     vdW  Elec       q    Type
REMARK                         _______ _______ _______ _____ _____    ______ ____
ROOT
ATOM      1  C   UNL     1     -12.477  13.640  65.070  0.00  0.00    +0.190 C 
ATOM      2  O   UNL     1     -12.504  14.751  64.034  0.00  0.00    -0.217 OA
ENDROOT
BRANCH   1   3
ATOM      3  C   UNL     1     -11.445  14.447  65.974  0.00  0.00    +0.009 A 
ATOM      4  C   UNL     1     -11.099  15.553  65.186  0.00  0.00    -0.002 A 
ATOM      5  C   UNL     1     -10.301  16.553  65.743  0.00  0.00    -0.000 A 
ATOM      6  C   UNL     1      -9.690  16.229  66.949  0.00  0.00    -0.000 A 
ATOM      7  C   UNL     1     -10.381  15.380  67.803  0.00  0.00    -0.000 A 
ATOM      8  C   UNL     1     -11.367  14.641  67.238  0.00  0.00    -0.002 A 
ENDBRANCH   1   3
BRANCH   1   9
ATOM      9  C   UNL     1     -11.376  12.725  64.107  0.00  0.00    +0.107 C 
ATOM     10  C   UNL     1     -12.534  11.868  63.346  0.00  0.00    +0.022 C 
BRANCH   9  12
ATOM     11  C   UNL     1     -10.292  10.723  64.359  0.00  0.00    +0.108 C 
ATOM     12  N   UNL     1     -11.033  11.631  65.166  0.00  0.00    -0.215 NA
ENDBRANCH   9  12
ENDBRANCH   1   9
TORSDOF 3
ENDMDL
