MODEL 1
REMARK VINA RESULT:      -7.2      0.000      0.000
REMARK  Name = 
REMARK  7 active torsions:
REMARK  status: ('A' for Active; 'I' for Inactive)
REMARK    1  A    between atoms: O_2  and  C_3
REMARK    2  A    between atoms: C_8  and  C_9
REMARK    3  A    between atoms: C_9  and  C_10
REMARK    4  A    between atoms: C_20  and  C_21
REMARK    5  A    between atoms: N_25  and  C_26
REMARK    6  A    between atoms: C_26  and  C_27
REMARK    7  A    between atoms: C_26  and  C_29
REMARK                            x       y       z     vdW  Elec       q    Type
REMARK                         _______ _______ _______ _____ _____    ______ ____
ROOT
ATOM      1  C   UNL     1     -12.427  12.737  70.483  0.00  0.00    +0.136 A 
ATOM      2  C   UNL     1     -12.200  11.373  70.660  0.00  0.00    +0.016 A 
ATOM      3  C   UNL     1     -12.155  10.674  69.454  0.00  0.00    +0.004 A 
ATOM      4  C   UNL     1     -11.487  11.310  68.413  0.00  0.00    +0.055 A 
ATOM      5  C   UNL     1     -10.748  10.601  67.474  0.00  0.00    +0.205 A 
ATOM      6  C   UNL     1      -9.994  11.328  66.560  0.00  0.00    +0.136 A 
ATOM      7  C   UNL     1     -10.100  12.715  66.561  0.00  0.00    +0.086 A 
ATOM      8  N   UNL     1     -11.279  13.191  67.049  0.00  0.00    -0.325 N 
ATOM      9  O   UNL     1     -10.988   9.364  67.321  0.00  0.00    -0.286 OA
ATOM     10  C   UNL     1     -11.626  12.682  68.244  0.00  0.00    +0.066 A 
ATOM     11  C   UNL     1     -12.017  13.405  69.337  0.00  0.00    +0.054 A 
ENDROOT
BRANCH   6  12
ATOM     12  C   UNL     1      -9.283  10.616  65.489  0.00  0.00    +0.392 C 
ATOM     13  O   UNL     1      -9.803  10.794  64.204  0.00  0.00    -0.240 OA
ATOM     14  O   UNL     1      -8.018  10.541  65.545  0.00  0.00    -0.240 OA
ENDBRANCH   6  12
BRANCH   1  16
ATOM     15  C   UNL     1     -13.420  14.030  71.613  0.00  0.00    +0.252 C 
ATOM     16  O   UNL     1     -13.213  13.484  71.366  0.00  0.00    -0.472 OA
ENDBRANCH   1  16
BRANCH   2  17
ATOM     17  C   UNL     1     -12.773  10.828  71.888  0.00  0.00    +0.058 C 
BRANCH  17  18
ATOM     18  C   UNL     1     -13.045   9.410  71.940  0.00  0.00    +0.011 A 
ATOM     19  C   UNL     1     -12.095   8.412  71.855  0.00  0.00    +0.147 A 
ATOM     20  F   UNL     1     -10.893   8.706  72.420  0.00  0.00    -0.204 F 
ATOM     21  C   UNL     1     -12.458   7.121  71.517  0.00  0.00    +0.085 A 
ATOM     22 CL   UNL     1     -11.167   6.127  70.872  0.00  0.00    -0.080 Cl
ATOM     23  C   UNL     1     -13.777   6.756  71.515  0.00  0.00    +0.014 A 
ATOM     24  C   UNL     1     -14.741   7.715  71.778  0.00  0.00    +0.001 A 
ATOM     25  C   UNL     1     -14.376   9.027  72.061  0.00  0.00    -0.002 A 
ENDBRANCH  17  18
ENDBRANCH   2  17
BRANCH   8  26
ATOM     26  C   UNL     1     -11.395  14.771  66.961  0.00  0.00    +0.118 C 
BRANCH  26  27
ATOM     27  C   UNL     1      -9.770  15.052  66.927  0.00  0.00    +0.023 C 
ATOM     28  C   UNL     1      -9.409  15.611  68.260  0.00  0.00    +0.002 C 
ATOM     29  C   UNL     1      -9.354  15.764  65.744  0.00  0.00    +0.002 C 
ENDBRANCH  26  27
BRANCH  26  30
ATOM     30  C   UNL     1     -11.517  14.763  65.310  0.00  0.00    +0.204 C 
ATOM     31  O   UNL     1     -12.773  14.335  65.003  0.00  0.00    -0.218 OA
ENDBRANCH  26  30
ENDBRANCH   8  26
TORSDOF 7
ENDMDL
MODEL 2
REMARK VINA RESULT:      -6.9      1.602      2.133
REMARK  Name = 
REMARK  7 active torsions:
REMARK  status: ('A' for Active; 'I' for Inactive)
REMARK    1  A    between atoms: O_2  and  C_3
REMARK    2  A    between atoms: C_8  and  C_9
REMARK    3  A    between atoms: C_9  and  C_10
REMARK    4  A    between atoms: C_20  and  C_21
REMARK    5  A    between atoms: N_25  and  C_26
REMARK    6  A    between atoms: C_26  and  C_27
REMARK    7  A    between atoms: C_26  and  C_29
REMARK                            x       y       z     vdW  Elec       q    Type
REMARK                         _______ _______ _______ _____ _____    ______ ____
ROOT
ATOM      1  C   UNL     1     -11.980  11.549  70.267  0.00  0.00    +0.136 A 
ATOM      2  C   UNL     1     -11.456  10.258  70.300  0.00  0.00    +0.016 A 
ATOM      3  C   UNL     1     -11.454   9.645  69.047  0.00  0.00    +0.004 A 
ATOM      4  C   UNL     1     -11.095  10.460  67.978  0.00  0.00    +0.055 A 
ATOM      5  C   UNL     1     -10.380   9.972  66.891  0.00  0.00    +0.205 A 
ATOM      6  C   UNL     1      -9.937  10.887  65.944  0.00  0.00    +0.136 A 
ATOM      7  C   UNL     1     -10.322  12.218  66.071  0.00  0.00    +0.086 A 
ATOM      8  N   UNL     1     -11.485  12.407  66.754  0.00  0.00    -0.325 N 
ATOM      9  O   UNL     1     -10.383   8.721  66.675  0.00  0.00    -0.286 OA
ATOM     10  C   UNL     1     -11.535  11.777  67.940  0.00  0.00    +0.066 A 
ATOM     11  C   UNL     1     -11.894  12.345  69.132  0.00  0.00    +0.054 A 
ENDROOT
BRANCH   6  12
ATOM     12  C   UNL     1      -9.268  10.397  64.731  0.00  0.00    +0.392 C 
ATOM     13  O   UNL     1      -9.843  10.806  63.524  0.00  0.00    -0.240 OA
ATOM     14  O   UNL     1      -8.002  10.329  64.721  0.00  0.00    -0.240 OA
ENDBRANCH   6  12
BRANCH   1  16
ATOM     15  C   UNL     1     -13.084  12.531  71.590  0.00  0.00    +0.252 C 
ATOM     16  O   UNL     1     -12.758  12.067  71.306  0.00  0.00    -0.472 OA
ENDBRANCH   1  16
BRANCH   2  17
ATOM     17  C   UNL     1     -11.713   9.543  71.547  0.00  0.00    +0.058 C 
BRANCH  17  18
ATOM     18  C   UNL     1     -10.895   8.392  71.851  0.00  0.00    +0.011 A 
ATOM     19  C   UNL     1     -11.355   7.096  71.974  0.00  0.00    +0.147 A 
ATOM     20  F   UNL     1     -12.386   6.766  71.149  0.00  0.00    -0.204 F 
ATOM     21  C   UNL     1     -10.607   6.143  72.641  0.00  0.00    +0.085 A 
ATOM     22 CL   UNL     1     -11.514   4.766  73.237  0.00  0.00    -0.080 Cl
ATOM     23  C   UNL     1      -9.302   6.394  72.961  0.00  0.00    +0.014 A 
ATOM     24  C   UNL     1      -8.768   7.641  72.679  0.00  0.00    +0.001 A 
ATOM     25  C   UNL     1      -9.539   8.618  72.060  0.00  0.00    -0.002 A 
ENDBRANCH  17  18
ENDBRANCH   2  17
BRANCH   8  26
ATOM     26  C   UNL     1     -11.931  13.929  66.811  0.00  0.00    +0.118 C 
BRANCH  26  27
ATOM     27  C   UNL     1     -10.448  14.548  66.443  0.00  0.00    +0.023 C 
ATOM     28  C   UNL     1      -9.922  15.159  67.696  0.00  0.00    +0.002 C 
ATOM     29  C   UNL     1     -10.460  15.343  65.240  0.00  0.00    +0.002 C 
ENDBRANCH  26  27
BRANCH  26  30
ATOM     30  C   UNL     1     -12.425  13.939  65.230  0.00  0.00    +0.204 C 
ATOM     31  O   UNL     1     -13.215  12.844  65.049  0.00  0.00    -0.218 OA
ENDBRANCH  26  30
ENDBRANCH   8  26
TORSDOF 7
ENDMDL
MODEL 3
REMARK VINA RESULT:      -6.7      5.685      8.105
REMARK  Name = 
REMARK  7 active torsions:
REMARK  status: ('A' for Active; 'I' for Inactive)
REMARK    1  A    between atoms: O_2  and  C_3
REMARK    2  A    between atoms: C_8  and  C_9
REMARK    3  A    between atoms: C_9  and  C_10
REMARK    4  A    between atoms: C_20  and  C_21
REMARK    5  A    between atoms: N_25  and  C_26
REMARK    6  A    between atoms: C_26  and  C_27
REMARK    7  A    between atoms: C_26  and  C_29
REMARK                            x       y       z     vdW  Elec       q    Type
REMARK                         _______ _______ _______ _____ _____    ______ ____
ROOT
ATOM      1  C   UNL     1      -9.513  18.448  68.157  0.00  0.00    +0.136 A 
ATOM      2  C   UNL     1      -9.660  17.062  68.183  0.00  0.00    +0.016 A 
ATOM      3  C   UNL     1      -8.446  16.389  68.051  0.00  0.00    +0.004 A 
ATOM      4  C   UNL     1      -7.374  16.937  68.747  0.00  0.00    +0.055 A 
ATOM      5  C   UNL     1      -6.383  16.144  69.312  0.00  0.00    +0.205 A 
ATOM      6  C   UNL     1      -5.434  16.766  70.115  0.00  0.00    +0.136 A 
ATOM      7  C   UNL     1      -5.457  18.153  70.221  0.00  0.00    +0.086 A 
ATOM      8  N   UNL     1      -6.021  18.793  69.160  0.00  0.00    -0.325 N 
ATOM      9  O   UNL     1      -6.231  14.961  68.878  0.00  0.00    -0.286 OA
ATOM     10  C   UNL     1      -7.229  18.318  68.809  0.00  0.00    +0.066 A 
ATOM     11  C   UNL     1      -8.351  19.069  68.596  0.00  0.00    +0.054 A 
ENDROOT
BRANCH   6  12
ATOM     12  C   UNL     1      -4.314  15.978  70.645  0.00  0.00    +0.392 C 
ATOM     13  O   UNL     1      -3.042  16.495  70.387  0.00  0.00    -0.240 OA
ATOM     14  O   UNL     1      -4.444  15.425  71.779  0.00  0.00    -0.240 OA
ENDBRANCH   6  12
BRANCH   1  16
ATOM     15  C   UNL     1     -10.618  19.816  67.240  0.00  0.00    +0.252 C 
ATOM     16  O   UNL     1     -10.450  19.287  67.546  0.00  0.00    -0.472 OA
ENDBRANCH   1  16
BRANCH   2  17
ATOM     17  C   UNL     1     -10.914  16.585  67.605  0.00  0.00    +0.058 C 
BRANCH  17  18
ATOM     18  C   UNL     1     -11.011  15.188  67.251  0.00  0.00    +0.011 A 
ATOM     19  C   UNL     1     -10.885  14.677  65.975  0.00  0.00    +0.147 A 
ATOM     20  F   UNL     1      -9.999  15.329  65.174  0.00  0.00    -0.204 F 
ATOM     21  C   UNL     1     -11.375  13.421  65.667  0.00  0.00    +0.085 A 
ATOM     22 CL   UNL     1     -11.693  13.140  63.967  0.00  0.00    -0.080 Cl
ATOM     23  C   UNL     1     -11.755  12.568  66.667  0.00  0.00    +0.014 A 
ATOM     24  C   UNL     1     -11.716  13.009  67.979  0.00  0.00    +0.001 A 
ATOM     25  C   UNL     1     -11.277  14.293  68.282  0.00  0.00    -0.002 A 
ENDBRANCH  17  18
ENDBRANCH   2  17
BRANCH   8  26
ATOM     26  C   UNL     1      -5.959  20.373  69.282  0.00  0.00    +0.118 C 
BRANCH  26  27
ATOM     27  C   UNL     1      -4.384  20.437  69.768  0.00  0.00    +0.023 C 
ATOM     28  C   UNL     1      -4.324  21.428  70.879  0.00  0.00    +0.002 C 
ATOM     29  C   UNL     1      -3.467  20.581  68.665  0.00  0.00    +0.002 C 
ENDBRANCH  26  27
BRANCH  26  30
ATOM     30  C   UNL     1      -5.566  20.574  67.686  0.00  0.00    +0.204 C 
ATOM     31  O   UNL     1      -6.376  21.551  67.193  0.00  0.00    -0.218 OA
ENDBRANCH  26  30
ENDBRANCH   8  26
TORSDOF 7
ENDMDL
MODEL 4
REMARK VINA RESULT:      -6.7      1.225      1.508
REMARK  Name = 
REMARK  7 active torsions:
REMARK  status: ('A' for Active; 'I' for Inactive)
REMARK    1  A    between atoms: O_2  and  C_3
REMARK    2  A    between atoms: C_8  and  C_9
REMARK    3  A    between atoms: C_9  and  C_10
REMARK    4  A    between atoms: C_20  and  C_21
REMARK    5  A    between atoms: N_25  and  C_26
REMARK    6  A    between atoms: C_26  and  C_27
REMARK    7  A    between atoms: C_26  and  C_29
REMARK                            x       y       z     vdW  Elec       q    Type
REMARK                         _______ _______ _______ _____ _____    ______ ____
ROOT
ATOM      1  C   UNL     1     -12.023  11.905  70.245  0.00  0.00    +0.136 A 
ATOM      2  C   UNL     1     -11.563  10.589  70.281  0.00  0.00    +0.016 A 
ATOM      3  C   UNL     1     -11.566   9.982  69.026  0.00  0.00    +0.004 A 
ATOM      4  C   UNL     1     -11.148  10.783  67.968  0.00  0.00    +0.055 A 
ATOM      5  C   UNL     1     -10.437  10.266  66.892  0.00  0.00    +0.205 A 
ATOM      6  C   UNL     1      -9.932  11.163  65.958  0.00  0.00    +0.136 A 
ATOM      7  C   UNL     1     -10.255  12.510  66.085  0.00  0.00    +0.086 A 
ATOM      8  N   UNL     1     -11.420  12.752  66.747  0.00  0.00    -0.325 N 
ATOM      9  O   UNL     1     -10.496   9.018  66.669  0.00  0.00    -0.286 OA
ATOM     10  C   UNL     1     -11.523  12.121  67.929  0.00  0.00    +0.066 A 
ATOM     11  C   UNL     1     -11.877  12.700  69.116  0.00  0.00    +0.054 A 
ENDROOT
BRANCH   6  12
ATOM     12  C   UNL     1      -9.264  10.646  64.756  0.00  0.00    +0.392 C 
ATOM     13  O   UNL     1      -9.693  11.202  63.547  0.00  0.00    -0.240 OA
ATOM     14  O   UNL     1      -8.023  10.391  64.813  0.00  0.00    -0.240 OA
ENDBRANCH   6  12
BRANCH   1  16
ATOM     15  C   UNL     1     -13.069  12.940  71.574  0.00  0.00    +0.252 C 
ATOM     16  O   UNL     1     -12.795  12.454  71.272  0.00  0.00    -0.472 OA
ENDBRANCH   1  16
BRANCH   2  17
ATOM     17  C   UNL     1     -11.878   9.882  71.520  0.00  0.00    +0.058 C 
BRANCH  17  18
ATOM     18  C   UNL     1     -11.395   8.529  71.671  0.00  0.00    +0.011 A 
ATOM     19  C   UNL     1     -10.077   8.135  71.563  0.00  0.00    +0.147 A 
ATOM     20  F   UNL     1      -9.163   9.038  72.010  0.00  0.00    -0.204 F 
ATOM     21  C   UNL     1      -9.755   6.811  71.327  0.00  0.00    +0.085 A 
ATOM     22 CL   UNL     1      -8.168   6.541  70.633  0.00  0.00    -0.080 Cl
ATOM     23  C   UNL     1     -10.708   5.838  71.454  0.00  0.00    +0.014 A 
ATOM     24  C   UNL     1     -12.012   6.208  71.742  0.00  0.00    +0.001 A 
ATOM     25  C   UNL     1     -12.345   7.545  71.922  0.00  0.00    -0.002 A 
ENDBRANCH  17  18
ENDBRANCH   2  17
BRANCH   8  26
ATOM     26  C   UNL     1     -11.793  14.293  66.803  0.00  0.00    +0.118 C 
BRANCH  26  27
ATOM     27  C   UNL     1     -10.258  14.842  66.558  0.00  0.00    +0.023 C 
ATOM     28  C   UNL     1      -9.791  15.389  67.863  0.00  0.00    +0.002 C 
ATOM     29  C   UNL     1     -10.145  15.670  65.382  0.00  0.00    +0.002 C 
ENDBRANCH  26  27
BRANCH  26  30
ATOM     30  C   UNL     1     -12.167  14.356  65.191  0.00  0.00    +0.204 C 
ATOM     31  O   UNL     1     -13.308  13.634  65.015  0.00  0.00    -0.218 OA
ENDBRANCH  26  30
ENDBRANCH   8  26
TORSDOF 7
ENDMDL
MODEL 5
REMARK VINA RESULT:      -6.6      5.138      7.927
REMARK  Name = 
REMARK  7 active torsions:
REMARK  status: ('A' for Active; 'I' for Inactive)
REMARK    1  A    between atoms: O_2  and  C_3
REMARK    2  A    between atoms: C_8  and  C_9
REMARK    3  A    between atoms: C_9  and  C_10
REMARK    4  A    between atoms: C_20  and  C_21
REMARK    5  A    between atoms: N_25  and  C_26
REMARK    6  A    between atoms: C_26  and  C_27
REMARK    7  A    between atoms: C_26  and  C_29
REMARK                            x       y       z     vdW  Elec       q    Type
REMARK                         _______ _______ _______ _____ _____    ______ ____
ROOT
ATOM      1  C   UNL     1      -9.359  18.014  66.999  0.00  0.00    +0.136 A 
ATOM      2  C   UNL     1      -9.234  16.679  66.618  0.00  0.00    +0.016 A 
ATOM      3  C   UNL     1      -7.906  16.256  66.563  0.00  0.00    +0.004 A 
ATOM      4  C   UNL     1      -7.085  16.715  67.588  0.00  0.00    +0.055 A 
ATOM      5  C   UNL     1      -6.059  15.936  68.110  0.00  0.00    +0.205 A 
ATOM      6  C   UNL     1      -5.388  16.415  69.229  0.00  0.00    +0.136 A 
ATOM      7  C   UNL     1      -5.698  17.687  69.699  0.00  0.00    +0.086 A 
ATOM      8  N   UNL     1      -6.203  18.531  68.757  0.00  0.00    -0.325 N 
ATOM      9  O   UNL     1      -5.613  14.974  67.414  0.00  0.00    -0.286 OA
ATOM     10  C   UNL     1      -7.224  18.019  68.049  0.00  0.00    +0.066 A 
ATOM     11  C   UNL     1      -8.425  18.632  67.820  0.00  0.00    +0.054 A 
ENDROOT
BRANCH   6  12
ATOM     12  C   UNL     1      -4.233  15.670  69.747  0.00  0.00    +0.392 C 
ATOM     13  O   UNL     1      -3.196  16.454  70.262  0.00  0.00    -0.240 OA
ATOM     14  O   UNL     1      -4.440  14.585  70.370  0.00  0.00    -0.240 OA
ENDBRANCH   6  12
BRANCH   1  16
ATOM     15  C   UNL     1     -10.606  19.424  66.373  0.00  0.00    +0.252 C 
ATOM     16  O   UNL     1     -10.334  18.857  66.457  0.00  0.00    -0.472 OA
ENDBRANCH   1  16
BRANCH   2  17
ATOM     17  C   UNL     1     -10.264  16.227  65.687  0.00  0.00    +0.058 C 
BRANCH  17  18
ATOM     18  C   UNL     1     -10.925  14.972  65.962  0.00  0.00    +0.011 A 
ATOM     19  C   UNL     1     -11.403  14.575  67.195  0.00  0.00    +0.147 A 
ATOM     20  F   UNL     1     -11.897  15.575  67.975  0.00  0.00    -0.204 F 
ATOM     21  C   UNL     1     -11.652  13.240  67.458  0.00  0.00    +0.085 A 
ATOM     22 CL   UNL     1     -11.669  12.805  69.155  0.00  0.00    -0.080 Cl
ATOM     23  C   UNL     1     -11.677  12.332  66.435  0.00  0.00    +0.014 A 
ATOM     24  C   UNL     1     -11.372  12.754  65.152  0.00  0.00    +0.001 A 
ATOM     25  C   UNL     1     -11.066  14.087  64.899  0.00  0.00    -0.002 A 
ENDBRANCH  17  18
ENDBRANCH   2  17
BRANCH   8  26
ATOM     26  C   UNL     1      -6.471  19.993  69.312  0.00  0.00    +0.118 C 
BRANCH  26  27
ATOM     27  C   UNL     1      -5.194  20.008  70.355  0.00  0.00    +0.023 C 
ATOM     28  C   UNL     1      -5.762  20.218  71.716  0.00  0.00    +0.002 C 
ATOM     29  C   UNL     1      -4.125  20.869  69.913  0.00  0.00    +0.002 C 
ENDBRANCH  26  27
BRANCH  26  30
ATOM     30  C   UNL     1      -5.602  20.712  68.100  0.00  0.00    +0.204 C 
ATOM     31  O   UNL     1      -6.468  21.489  67.391  0.00  0.00    -0.218 OA
ENDBRANCH  26  30
ENDBRANCH   8  26
TORSDOF 7
ENDMDL
MODEL 6
REMARK VINA RESULT:      -6.6      3.153      6.978
REMARK  Name = 
REMARK  7 active torsions:
REMARK  status: ('A' for Active; 'I' for Inactive)
REMARK    1  A    between atoms: O_2  and  C_3
REMARK    2  A    between atoms: C_8  and  C_9
REMARK    3  A    between atoms: C_9  and  C_10
REMARK    4  A    between atoms: C_20  and  C_21
REMARK    5  A    between atoms: N_25  and  C_26
REMARK    6  A    between atoms: C_26  and  C_27
REMARK    7  A    between atoms: C_26  and  C_29
REMARK                            x       y       z     vdW  Elec       q    Type
REMARK                         _______ _______ _______ _____ _____    ______ ____
ROOT
ATOM      1  C   UNL     1     -12.233  12.256  70.268  0.00  0.00    +0.136 A 
ATOM      2  C   UNL     1     -11.773  12.582  68.992  0.00  0.00    +0.016 A 
ATOM      3  C   UNL     1     -10.635  11.862  68.630  0.00  0.00    +0.004 A 
ATOM      4  C   UNL     1     -10.629  10.520  68.995  0.00  0.00    +0.055 A 
ATOM      5  C   UNL     1     -10.038   9.546  68.200  0.00  0.00    +0.205 A 
ATOM      6  C   UNL     1     -10.210   8.216  68.568  0.00  0.00    +0.136 A 
ATOM      7  C   UNL     1     -10.865   7.935  69.762  0.00  0.00    +0.086 A 
ATOM      8  N   UNL     1     -10.798   8.927  70.692  0.00  0.00    -0.325 N 
ATOM      9  O   UNL     1      -9.171   9.904  67.344  0.00  0.00    -0.286 OA
ATOM     10  C   UNL     1     -11.145  10.140  70.229  0.00  0.00    +0.066 A 
ATOM     11  C   UNL     1     -12.033  10.997  70.819  0.00  0.00    +0.054 A 
ENDROOT
BRANCH   6  12
ATOM     12  C   UNL     1      -9.515   7.166  67.811  0.00  0.00    +0.392 C 
ATOM     13  O   UNL     1      -8.572   6.431  68.535  0.00  0.00    -0.240 OA
ATOM     14  O   UNL     1     -10.173   6.495  66.959  0.00  0.00    -0.240 OA
ENDBRANCH   6  12
BRANCH   1  16
ATOM     15  C   UNL     1     -13.044  13.390  71.679  0.00  0.00    +0.252 C 
ATOM     16  O   UNL     1     -12.779  13.210  71.131  0.00  0.00    -0.472 OA
ENDBRANCH   1  16
BRANCH   2  17
ATOM     17  C   UNL     1     -12.002  13.974  68.615  0.00  0.00    +0.058 C 
BRANCH  17  18
ATOM     18  C   UNL     1     -11.512  14.418  67.331  0.00  0.00    +0.011 A 
ATOM     19  C   UNL     1     -11.847  13.862  66.113  0.00  0.00    +0.147 A 
ATOM     20  F   UNL     1     -13.121  13.393  66.020  0.00  0.00    -0.204 F 
ATOM     21  C   UNL     1     -11.053  14.073  65.000  0.00  0.00    +0.085 A 
ATOM     22 CL   UNL     1     -11.226  12.884  63.724  0.00  0.00    -0.080 Cl
ATOM     23  C   UNL     1     -10.079  15.033  65.022  0.00  0.00    +0.014 A 
ATOM     24  C   UNL     1      -9.850  15.731  66.196  0.00  0.00    +0.001 A 
ATOM     25  C   UNL     1     -10.611  15.477  67.331  0.00  0.00    -0.002 A 
ENDBRANCH  17  18
ENDBRANCH   2  17
BRANCH   8  26
ATOM     26  C   UNL     1     -11.488   8.539  72.067  0.00  0.00    +0.118 C 
BRANCH  26  27
ATOM     27  C   UNL     1     -12.168   7.140  71.518  0.00  0.00    +0.023 C 
ATOM     28  C   UNL     1     -13.641   7.362  71.503  0.00  0.00    +0.002 C 
ATOM     29  C   UNL     1     -11.653   5.972  72.190  0.00  0.00    +0.002 C 
ENDBRANCH  26  27
BRANCH  26  30
ATOM     30  C   UNL     1     -10.139   7.765  72.632  0.00  0.00    +0.204 C 
ATOM     31  O   UNL     1      -9.153   8.700  72.733  0.00  0.00    -0.218 OA
ENDBRANCH  26  30
ENDBRANCH   8  26
TORSDOF 7
ENDMDL
MODEL 7
REMARK VINA RESULT:      -6.5      3.748      5.316
REMARK  Name = 
REMARK  7 active torsions:
REMARK  status: ('A' for Active; 'I' for Inactive)
REMARK    1  A    between atoms: O_2  and  C_3
REMARK    2  A    between atoms: C_8  and  C_9
REMARK    3  A    between atoms: C_9  and  C_10
REMARK    4  A    between atoms: C_20  and  C_21
REMARK    5  A    between atoms: N_25  and  C_26
REMARK    6  A    between atoms: C_26  and  C_27
REMARK    7  A    between atoms: C_26  and  C_29
REMARK                            x       y       z     vdW  Elec       q    Type
REMARK                         _______ _______ _______ _____ _____    ______ ____
ROOT
ATOM      1  C   UNL     1     -10.726  15.517  67.919  0.00  0.00    +0.136 A 
ATOM      2  C   UNL     1     -10.819  15.007  69.213  0.00  0.00    +0.016 A 
ATOM      3  C   UNL     1     -11.474  13.777  69.261  0.00  0.00    +0.004 A 
ATOM      4  C   UNL     1     -11.164  12.888  68.237  0.00  0.00    +0.055 A 
ATOM      5  C   UNL     1     -11.109  11.516  68.448  0.00  0.00    +0.205 A 
ATOM      6  C   UNL     1     -10.647  10.718  67.408  0.00  0.00    +0.136 A 
ATOM      7  C   UNL     1     -10.369  11.315  66.183  0.00  0.00    +0.086 A 
ATOM      8  N   UNL     1     -11.058  12.466  65.945  0.00  0.00    -0.325 N 
ATOM      9  O   UNL     1     -11.711  11.032  69.456  0.00  0.00    -0.286 OA
ATOM     10  C   UNL     1     -10.991  13.364  66.943  0.00  0.00    +0.066 A 
ATOM     11  C   UNL     1     -10.677  14.687  66.806  0.00  0.00    +0.054 A 
ENDROOT
BRANCH   6  12
ATOM     12  C   UNL     1     -10.672   9.257  67.558  0.00  0.00    +0.392 C 
ATOM     13  O   UNL     1     -10.420   8.530  66.391  0.00  0.00    -0.240 OA
ATOM     14  O   UNL     1     -10.192   8.747  68.616  0.00  0.00    -0.240 OA
ENDBRANCH   6  12
BRANCH   1  16
ATOM     15  C   UNL     1     -10.667  17.414  67.342  0.00  0.00    +0.252 C 
ATOM     16  O   UNL     1     -10.837  16.884  67.645  0.00  0.00    -0.472 OA
ENDBRANCH   1  16
BRANCH   2  17
ATOM     17  C   UNL     1     -10.944  16.029  70.248  0.00  0.00    +0.058 C 
BRANCH  17  18
ATOM     18  C   UNL     1     -12.056  15.935  71.165  0.00  0.00    +0.011 A 
ATOM     19  C   UNL     1     -12.031  16.313  72.492  0.00  0.00    +0.147 A 
ATOM     20  F   UNL     1     -11.250  17.391  72.774  0.00  0.00    -0.204 F 
ATOM     21  C   UNL     1     -12.978  15.834  73.380  0.00  0.00    +0.085 A 
ATOM     22 CL   UNL     1     -12.512  15.888  75.068  0.00  0.00    -0.080 Cl
ATOM     23  C   UNL     1     -14.093  15.193  72.915  0.00  0.00    +0.014 A 
ATOM     24  C   UNL     1     -14.219  14.963  71.555  0.00  0.00    +0.001 A 
ATOM     25  C   UNL     1     -13.238  15.395  70.669  0.00  0.00    -0.002 A 
ENDBRANCH  17  18
ENDBRANCH   2  17
BRANCH   8  26
ATOM     26  C   UNL     1     -10.774  13.074  64.508  0.00  0.00    +0.118 C 
BRANCH  26  27
ATOM     27  C   UNL     1     -10.915  11.646  63.695  0.00  0.00    +0.023 C 
ATOM     28  C   UNL     1      -9.695  11.517  62.850  0.00  0.00    +0.002 C 
ATOM     29  C   UNL     1     -12.206  11.486  63.073  0.00  0.00    +0.002 C 
ENDBRANCH  26  27
BRANCH  26  30
ATOM     30  C   UNL     1     -12.361  13.472  64.260  0.00  0.00    +0.204 C 
ATOM     31  O   UNL     1     -12.394  14.785  63.900  0.00  0.00    -0.218 OA
ENDBRANCH  26  30
ENDBRANCH   8  26
TORSDOF 7
ENDMDL
MODEL 8
REMARK VINA RESULT:      -6.5      3.425      7.116
REMARK  Name = 
REMARK  7 active torsions:
REMARK  status: ('A' for Active; 'I' for Inactive)
REMARK    1  A    between atoms: O_2  and  C_3
REMARK    2  A    between atoms: C_8  and  C_9
REMARK    3  A    between atoms: C_9  and  C_10
REMARK    4  A    between atoms: C_20  and  C_21
REMARK    5  A    between atoms: N_25  and  C_26
REMARK    6  A    between atoms: C_26  and  C_27
REMARK    7  A    between atoms: C_26  and  C_29
REMARK                            x       y       z     vdW  Elec       q    Type
REMARK                         _______ _______ _______ _____ _____    ______ ____
ROOT
ATOM      1  C   UNL     1     -12.218  12.111  70.355  0.00  0.00    +0.136 A 
ATOM      2  C   UNL     1     -11.755  12.446  69.083  0.00  0.00    +0.016 A 
ATOM      3  C   UNL     1     -10.599  11.750  68.730  0.00  0.00    +0.004 A 
ATOM      4  C   UNL     1     -10.568  10.409  69.096  0.00  0.00    +0.055 A 
ATOM      5  C   UNL     1      -9.950   9.447  68.306  0.00  0.00    +0.205 A 
ATOM      6  C   UNL     1     -10.097   8.115  68.674  0.00  0.00    +0.136 A 
ATOM      7  C   UNL     1     -10.755   7.820  69.863  0.00  0.00    +0.086 A 
ATOM      8  N   UNL     1     -10.716   8.814  70.793  0.00  0.00    -0.325 N 
ATOM      9  O   UNL     1      -9.084   9.823  67.457  0.00  0.00    -0.286 OA
ATOM     10  C   UNL     1     -11.085  10.019  70.326  0.00  0.00    +0.066 A 
ATOM     11  C   UNL     1     -11.995  10.857  70.908  0.00  0.00    +0.054 A 
ENDROOT
BRANCH   6  12
ATOM     12  C   UNL     1      -9.374   7.079  67.923  0.00  0.00    +0.392 C 
ATOM     13  O   UNL     1      -8.330   6.457  68.613  0.00  0.00    -0.240 OA
ATOM     14  O   UNL     1     -10.033   6.315  67.155  0.00  0.00    -0.240 OA
ENDBRANCH   6  12
BRANCH   1  16
ATOM     15  C   UNL     1     -13.111  13.222  71.735  0.00  0.00    +0.252 C 
ATOM     16  O   UNL     1     -12.791  13.054  71.213  0.00  0.00    -0.472 OA
ENDBRANCH   1  16
BRANCH   2  17
ATOM     17  C   UNL     1     -12.010  13.833  68.703  0.00  0.00    +0.058 C 
BRANCH  17  18
ATOM     18  C   UNL     1     -11.471  14.303  67.448  0.00  0.00    +0.011 A 
ATOM     19  C   UNL     1     -10.397  15.158  67.310  0.00  0.00    +0.147 A 
ATOM     20  F   UNL     1      -9.418  15.015  68.245  0.00  0.00    -0.204 F 
ATOM     21  C   UNL     1     -10.200  15.859  66.134  0.00  0.00    +0.085 A 
ATOM     22 CL   UNL     1      -9.212  17.300  66.280  0.00  0.00    -0.080 Cl
ATOM     23  C   UNL     1     -10.906  15.528  65.011  0.00  0.00    +0.014 A 
ATOM     24  C   UNL     1     -11.871  14.538  65.090  0.00  0.00    +0.001 A 
ATOM     25  C   UNL     1     -12.108  13.874  66.288  0.00  0.00    -0.002 A 
ENDBRANCH  17  18
ENDBRANCH   2  17
BRANCH   8  26
ATOM     26  C   UNL     1     -11.408   8.412  72.162  0.00  0.00    +0.118 C 
BRANCH  26  27
ATOM     27  C   UNL     1     -12.074   7.010  71.603  0.00  0.00    +0.023 C 
ATOM     28  C   UNL     1     -13.543   7.242  71.522  0.00  0.00    +0.002 C 
ATOM     29  C   UNL     1     -11.597   5.848  72.311  0.00  0.00    +0.002 C 
ENDBRANCH  26  27
BRANCH  26  30
ATOM     30  C   UNL     1     -10.055   7.646  72.729  0.00  0.00    +0.204 C 
ATOM     31  O   UNL     1      -9.090   8.596  72.880  0.00  0.00    -0.218 OA
ENDBRANCH  26  30
ENDBRANCH   8  26
TORSDOF 7
ENDMDL
MODEL 9
REMARK VINA RESULT:      -6.5      4.734      8.528
REMARK  Name = 
REMARK  7 active torsions:
REMARK  status: ('A' for Active; 'I' for Inactive)
REMARK    1  A    between atoms: O_2  and  C_3
REMARK    2  A    between atoms: C_8  and  C_9
REMARK    3  A    between atoms: C_9  and  C_10
REMARK    4  A    between atoms: C_20  and  C_21
REMARK    5  A    between atoms: N_25  and  C_26
REMARK    6  A    between atoms: C_26  and  C_27
REMARK    7  A    between atoms: C_26  and  C_29
REMARK                            x       y       z     vdW  Elec       q    Type
REMARK                         _______ _______ _______ _____ _____    ______ ____
ROOT
ATOM      1  C   UNL     1      -8.295  17.676  66.718  0.00  0.00    +0.136 A 
ATOM      2  C   UNL     1      -8.441  18.108  68.036  0.00  0.00    +0.016 A 
ATOM      3  C   UNL     1      -9.707  17.838  68.554  0.00  0.00    +0.004 A 
ATOM      4  C   UNL     1     -10.245  16.601  68.217  0.00  0.00    +0.055 A 
ATOM      5  C   UNL     1     -11.044  15.883  69.099  0.00  0.00    +0.205 A 
ATOM      6  C   UNL     1     -11.413  14.593  68.735  0.00  0.00    +0.136 A 
ATOM      7  C   UNL     1     -11.061  14.130  67.472  0.00  0.00    +0.086 A 
ATOM      8  N   UNL     1     -10.880  15.107  66.541  0.00  0.00    -0.325 N 
ATOM      9  O   UNL     1     -11.606  16.505  70.052  0.00  0.00    -0.286 OA
ATOM     10  C   UNL     1     -10.062  16.097  66.934  0.00  0.00    +0.066 A 
ATOM     11  C   UNL     1      -9.006  16.592  66.220  0.00  0.00    +0.054 A 
ENDROOT
BRANCH   6  12
ATOM     12  C   UNL     1     -12.340  13.843  69.593  0.00  0.00    +0.392 C 
ATOM     13  O   UNL     1     -12.007  12.503  69.808  0.00  0.00    -0.240 OA
ATOM     14  O   UNL     1     -12.852  14.431  70.594  0.00  0.00    -0.240 OA
ENDBRANCH   6  12
BRANCH   1  16
ATOM     15  C   UNL     1      -7.042  18.488  65.412  0.00  0.00    +0.252 C 
ATOM     16  O   UNL     1      -7.554  18.394  65.775  0.00  0.00    -0.472 OA
ENDBRANCH   1  16
BRANCH   2  17
ATOM     17  C   UNL     1      -7.678  19.311  68.356  0.00  0.00    +0.058 C 
BRANCH  17  18
ATOM     18  C   UNL     1      -6.585  19.193  69.293  0.00  0.00    +0.011 A 
ATOM     19  C   UNL     1      -5.729  18.113  69.389  0.00  0.00    +0.147 A 
ATOM     20  F   UNL     1      -5.440  17.496  68.212  0.00  0.00    -0.204 F 
ATOM     21  C   UNL     1      -4.987  17.903  70.538  0.00  0.00    +0.085 A 
ATOM     22 CL   UNL     1      -4.432  16.258  70.775  0.00  0.00    -0.080 Cl
ATOM     23  C   UNL     1      -4.891  18.886  71.484  0.00  0.00    +0.014 A 
ATOM     24  C   UNL     1      -5.609  20.058  71.312  0.00  0.00    +0.001 A 
ATOM     25  C   UNL     1      -6.400  20.244  70.184  0.00  0.00    -0.002 A 
ENDBRANCH  17  18
ENDBRANCH   2  17
BRANCH   8  26
ATOM     26  C   UNL     1     -10.557  14.537  65.096  0.00  0.00    +0.118 C 
BRANCH  26  27
ATOM     27  C   UNL     1     -11.207  13.044  65.361  0.00  0.00    +0.023 C 
ATOM     28  C   UNL     1     -10.142  12.055  65.034  0.00  0.00    +0.002 C 
ATOM     29  C   UNL     1     -12.505  12.887  64.752  0.00  0.00    +0.002 C 
ENDBRANCH  26  27
BRANCH  26  30
ATOM     30  C   UNL     1     -11.960  15.129  64.447  0.00  0.00    +0.204 C 
ATOM     31  O   UNL     1     -11.665  16.334  63.884  0.00  0.00    -0.218 OA
ENDBRANCH  26  30
ENDBRANCH   8  26
TORSDOF 7
ENDMDL
