MODEL 1
REMARK VINA RESULT:      -6.8      0.000      0.000
REMARK  Name = 
REMARK  3 active torsions:
REMARK  status: ('A' for Active; 'I' for Inactive)
REMARK    1  A    between atoms: N_6  and  C1*_7
REMARK    2  A    between atoms: C4*_11  and  C5*_12
REMARK    3  A    between atoms: C_16  and  C_17
REMARK                            x       y       z     vdW  Elec       q    Type
REMARK                         _______ _______ _______ _____ _____    ______ ____
ROOT
ATOM      1  O   UNL     1     -11.908  16.206  71.505  0.00  0.00    -0.265 OA
ATOM      2  C   UNL     1     -11.785  15.931  70.694  0.00  0.00    +0.288 A 
ATOM      3  C   UNL     1     -12.154  14.639  70.325  0.00  0.00    +0.146 A 
ATOM      4  C   UNL     1     -11.569  14.039  69.214  0.00  0.00    +0.091 A 
ATOM      5  N   UNL     1     -11.192  14.894  68.227  0.00  0.00    -0.256 N 
ATOM      6  C   UNL     1     -10.856  16.158  68.517  0.00  0.00    +0.355 A 
ATOM      7  O   UNL     1     -10.011  16.823  67.839  0.00  0.00    -0.244 OA
ATOM      8  N   UNL     1     -11.325  16.686  69.669  0.00  0.00    -0.153 NA
ENDROOT
BRANCH   5   9
ATOM      9  C1* UNL     1     -10.271  14.215  67.116  0.00  0.00    +0.211 C 
ATOM     10  O4* UNL     1     -10.700  15.246  66.090  0.00  0.00    -0.332 OA
ATOM     11  C4* UNL     1     -11.191  14.340  65.007  0.00  0.00    +0.180 C 
ATOM     12  C3* UNL     1     -12.509  14.040  66.073  0.00  0.00    +0.186 C 
ATOM     13  O3* UNL     1     -13.014  12.904  65.213  0.00  0.00    -0.220 OA
ATOM     14  C2* UNL     1     -11.433  13.079  66.818  0.00  0.00    +0.089 C 
BRANCH  11  15
ATOM     15  C5* UNL     1     -12.013  15.512  64.217  0.00  0.00    +0.214 C 
ATOM     16  O5* UNL     1     -11.317  16.656  64.199  0.00  0.00    -0.218 OA
ENDBRANCH  11  15
ENDBRANCH   5   9
BRANCH   3  17
ATOM     17  C   UNL     1     -12.900  13.865  71.348  0.00  0.00    +0.424 C 
ATOM     18  F   UNL     1     -12.496  14.127  72.637  0.00  0.00    -0.166 F 
ATOM     19  F   UNL     1     -14.246  14.220  71.312  0.00  0.00    -0.166 F 
ATOM     20  F   UNL     1     -12.864  12.522  71.046  0.00  0.00    -0.166 F 
ENDBRANCH   3  17
TORSDOF 3
ENDMDL
MODEL 2
REMARK VINA RESULT:      -6.5      2.002      2.555
REMARK  Name = 
REMARK  3 active torsions:
REMARK  status: ('A' for Active; 'I' for Inactive)
REMARK    1  A    between atoms: N_6  and  C1*_7
REMARK    2  A    between atoms: C4*_11  and  C5*_12
REMARK    3  A    between atoms: C_16  and  C_17
REMARK                            x       y       z     vdW  Elec       q    Type
REMARK                         _______ _______ _______ _____ _____    ______ ____
ROOT
ATOM      1  O   UNL     1     -12.759  12.780  71.325  0.00  0.00    -0.265 OA
ATOM      2  C   UNL     1     -12.441  13.154  70.613  0.00  0.00    +0.288 A 
ATOM      3  C   UNL     1     -11.819  12.385  69.632  0.00  0.00    +0.146 A 
ATOM      4  C   UNL     1     -10.926  12.979  68.744  0.00  0.00    +0.091 A 
ATOM      5  N   UNL     1     -11.178  14.283  68.457  0.00  0.00    -0.256 N 
ATOM      6  C   UNL     1     -11.802  15.065  69.349  0.00  0.00    +0.355 A 
ATOM      7  O   UNL     1     -11.598  16.317  69.436  0.00  0.00    -0.244 OA
ATOM      8  N   UNL     1     -12.562  14.463  70.291  0.00  0.00    -0.153 NA
ENDROOT
BRANCH   5   9
ATOM      9  C1* UNL     1      -9.986  15.005  67.683  0.00  0.00    +0.211 C 
ATOM     10  O4* UNL     1     -10.963  15.635  66.708  0.00  0.00    -0.332 OA
ATOM     11  C4* UNL     1     -10.374  15.166  65.417  0.00  0.00    +0.180 C 
ATOM     12  C3* UNL     1     -10.977  13.624  65.883  0.00  0.00    +0.186 C 
ATOM     13  O3* UNL     1     -10.230  12.936  64.763  0.00  0.00    -0.220 OA
ATOM     14  C2* UNL     1      -9.667  13.619  66.842  0.00  0.00    +0.089 C 
BRANCH  11  15
ATOM     15  C5* UNL     1     -11.711  15.495  64.535  0.00  0.00    +0.214 C 
ATOM     16  O5* UNL     1     -11.587  16.664  63.894  0.00  0.00    -0.218 OA
ENDBRANCH  11  15
ENDBRANCH   5   9
BRANCH   3  17
ATOM     17  C   UNL     1     -11.894  10.915  69.822  0.00  0.00    +0.424 C 
ATOM     18  F   UNL     1     -13.147  10.472  70.178  0.00  0.00    -0.166 F 
ATOM     19  F   UNL     1     -11.611  10.274  68.619  0.00  0.00    -0.166 F 
ATOM     20  F   UNL     1     -10.918  10.499  70.701  0.00  0.00    -0.166 F 
ENDBRANCH   3  17
TORSDOF 3
ENDMDL
MODEL 3
REMARK VINA RESULT:      -6.5      2.992      4.546
REMARK  Name = 
REMARK  3 active torsions:
REMARK  status: ('A' for Active; 'I' for Inactive)
REMARK    1  A    between atoms: N_6  and  C1*_7
REMARK    2  A    between atoms: C4*_11  and  C5*_12
REMARK    3  A    between atoms: C_16  and  C_17
REMARK                            x       y       z     vdW  Elec       q    Type
REMARK                         _______ _______ _______ _____ _____    ______ ____
ROOT
ATOM      1  O   UNL     1     -12.115  14.118  68.183  0.00  0.00    -0.265 OA
ATOM      2  C   UNL     1     -11.644  14.793  67.918  0.00  0.00    +0.288 A 
ATOM      3  C   UNL     1     -11.349  15.833  68.796  0.00  0.00    +0.146 A 
ATOM      4  C   UNL     1     -11.012  17.089  68.298  0.00  0.00    +0.091 A 
ATOM      5  N   UNL     1     -10.386  17.085  67.093  0.00  0.00    -0.256 N 
ATOM      6  C   UNL     1     -10.606  16.093  66.218  0.00  0.00    +0.355 A 
ATOM      7  O   UNL     1     -10.545  16.254  64.959  0.00  0.00    -0.244 OA
ATOM      8  N   UNL     1     -11.061  14.916  66.703  0.00  0.00    -0.153 NA
ENDROOT
BRANCH   5   9
ATOM      9  C1* UNL     1     -10.283  18.529  66.425  0.00  0.00    +0.211 C 
ATOM     10  O4* UNL     1      -8.933  18.187  65.824  0.00  0.00    -0.332 OA
ATOM     11  C4* UNL     1      -8.120  19.321  66.360  0.00  0.00    +0.180 C 
ATOM     12  C3* UNL     1      -8.273  18.512  67.871  0.00  0.00    +0.186 C 
ATOM     13  O3* UNL     1      -7.694  19.690  68.619  0.00  0.00    -0.220 OA
ATOM     14  C2* UNL     1      -9.756  19.173  67.852  0.00  0.00    +0.089 C 
BRANCH  11  15
ATOM     15  C5* UNL     1      -6.681  18.609  66.051  0.00  0.00    +0.214 C 
ATOM     16  O5* UNL     1      -6.421  18.602  64.737  0.00  0.00    -0.218 OA
ENDBRANCH  11  15
ENDBRANCH   5   9
BRANCH   3  17
ATOM     17  C   UNL     1     -11.747  15.616  70.209  0.00  0.00    +0.424 C 
ATOM     18  F   UNL     1     -11.221  14.470  70.757  0.00  0.00    -0.166 F 
ATOM     19  F   UNL     1     -11.256  16.654  70.997  0.00  0.00    -0.166 F 
ATOM     20  F   UNL     1     -13.118  15.678  70.330  0.00  0.00    -0.166 F 
ENDBRANCH   3  17
TORSDOF 3
ENDMDL
MODEL 4
REMARK VINA RESULT:      -6.4      2.756      4.770
REMARK  Name = 
REMARK  3 active torsions:
REMARK  status: ('A' for Active; 'I' for Inactive)
REMARK    1  A    between atoms: N_6  and  C1*_7
REMARK    2  A    between atoms: C4*_11  and  C5*_12
REMARK    3  A    between atoms: C_16  and  C_17
REMARK                            x       y       z     vdW  Elec       q    Type
REMARK                         _______ _______ _______ _____ _____    ______ ____
ROOT
ATOM      1  O   UNL     1     -12.363  12.916  65.579  0.00  0.00    -0.265 OA
ATOM      2  C   UNL     1     -11.872  13.620  65.681  0.00  0.00    +0.288 A 
ATOM      3  C   UNL     1     -11.212  13.850  66.886  0.00  0.00    +0.146 A 
ATOM      4  C   UNL     1     -10.816  15.141  67.227  0.00  0.00    +0.091 A 
ATOM      5  N   UNL     1     -10.513  15.949  66.178  0.00  0.00    -0.256 N 
ATOM      6  C   UNL     1     -11.093  15.757  64.985  0.00  0.00    +0.355 A 
ATOM      7  O   UNL     1     -11.318  16.701  64.165  0.00  0.00    -0.244 OA
ATOM      8  N   UNL     1     -11.593  14.530  64.718  0.00  0.00    -0.153 NA
ENDROOT
BRANCH   5   9
ATOM      9  C1* UNL     1     -10.353  17.483  66.583  0.00  0.00    +0.211 C 
ATOM     10  O4* UNL     1      -9.082  17.596  65.765  0.00  0.00    -0.332 OA
ATOM     11  C4* UNL     1      -8.148  18.111  66.813  0.00  0.00    +0.180 C 
ATOM     12  C3* UNL     1      -8.248  16.520  67.461  0.00  0.00    +0.186 C 
ATOM     13  O3* UNL     1      -7.528  16.934  68.724  0.00  0.00    -0.220 OA
ATOM     14  C2* UNL     1      -9.674  17.051  68.027  0.00  0.00    +0.089 C 
BRANCH  11  15
ATOM     15  C5* UNL     1      -6.794  17.753  65.970  0.00  0.00    +0.214 C 
ATOM     16  O5* UNL     1      -6.671  18.548  64.899  0.00  0.00    -0.218 OA
ENDBRANCH  11  15
ENDBRANCH   5   9
BRANCH   3  17
ATOM     17  C   UNL     1     -11.281  12.749  67.879  0.00  0.00    +0.424 C 
ATOM     18  F   UNL     1     -11.273  11.496  67.310  0.00  0.00    -0.166 F 
ATOM     19  F   UNL     1     -10.152  12.784  68.693  0.00  0.00    -0.166 F 
ATOM     20  F   UNL     1     -12.353  12.938  68.724  0.00  0.00    -0.166 F 
ENDBRANCH   3  17
TORSDOF 3
ENDMDL
MODEL 5
REMARK VINA RESULT:      -6.4      2.602      3.814
REMARK  Name = 
REMARK  3 active torsions:
REMARK  status: ('A' for Active; 'I' for Inactive)
REMARK    1  A    between atoms: N_6  and  C1*_7
REMARK    2  A    between atoms: C4*_11  and  C5*_12
REMARK    3  A    between atoms: C_16  and  C_17
REMARK                            x       y       z     vdW  Elec       q    Type
REMARK                         _______ _______ _______ _____ _____    ______ ____
ROOT
ATOM      1  O   UNL     1     -13.393  13.417  72.461  0.00  0.00    -0.265 OA
ATOM      2  C   UNL     1     -12.897  13.721  71.820  0.00  0.00    +0.288 A 
ATOM      3  C   UNL     1     -12.397  15.019  71.873  0.00  0.00    +0.146 A 
ATOM      4  C   UNL     1     -12.010  15.664  70.700  0.00  0.00    +0.091 A 
ATOM      5  N   UNL     1     -11.546  14.848  69.718  0.00  0.00    -0.256 N 
ATOM      6  C   UNL     1     -11.968  13.578  69.635  0.00  0.00    +0.355 A 
ATOM      7  O   UNL     1     -12.054  12.947  68.535  0.00  0.00    -0.244 OA
ATOM      8  N   UNL     1     -12.466  13.006  70.754  0.00  0.00    -0.153 NA
ENDROOT
BRANCH   5   9
ATOM      9  C1* UNL     1     -11.395  15.575  68.307  0.00  0.00    +0.211 C 
ATOM     10  O4* UNL     1     -10.348  14.569  67.869  0.00  0.00    -0.332 OA
ATOM     11  C4* UNL     1      -9.237  15.500  67.501  0.00  0.00    +0.180 C 
ATOM     12  C3* UNL     1      -9.091  15.745  69.198  0.00  0.00    +0.186 C 
ATOM     13  O3* UNL     1      -8.134  16.898  69.001  0.00  0.00    -0.220 OA
ATOM     14  C2* UNL     1     -10.385  16.700  68.974  0.00  0.00    +0.089 C 
BRANCH  11  15
ATOM     15  C5* UNL     1      -8.086  14.339  67.504  0.00  0.00    +0.214 C 
ATOM     16  O5* UNL     1      -8.550  13.201  66.970  0.00  0.00    -0.218 OA
ENDBRANCH  11  15
ENDBRANCH   5   9
BRANCH   3  17
ATOM     17  C   UNL     1     -12.630  15.749  73.144  0.00  0.00    +0.424 C 
ATOM     18  F   UNL     1     -12.240  15.045  74.259  0.00  0.00    -0.166 F 
ATOM     19  F   UNL     1     -11.863  16.911  73.162  0.00  0.00    -0.166 F 
ATOM     20  F   UNL     1     -13.940  16.169  73.216  0.00  0.00    -0.166 F 
ENDBRANCH   3  17
TORSDOF 3
ENDMDL
MODEL 6
REMARK VINA RESULT:      -6.3      3.796      5.715
REMARK  Name = 
REMARK  3 active torsions:
REMARK  status: ('A' for Active; 'I' for Inactive)
REMARK    1  A    between atoms: N_6  and  C1*_7
REMARK    2  A    between atoms: C4*_11  and  C5*_12
REMARK    3  A    between atoms: C_16  and  C_17
REMARK                            x       y       z     vdW  Elec       q    Type
REMARK                         _______ _______ _______ _____ _____    ______ ____
ROOT
ATOM      1  O   UNL     1     -11.386  16.743  64.139  0.00  0.00    -0.265 OA
ATOM      2  C   UNL     1     -11.443  15.950  64.480  0.00  0.00    +0.288 A 
ATOM      3  C   UNL     1     -10.624  15.581  65.544  0.00  0.00    +0.146 A 
ATOM      4  C   UNL     1     -10.373  14.234  65.794  0.00  0.00    +0.091 A 
ATOM      5  N   UNL     1     -11.373  13.385  65.444  0.00  0.00    -0.256 N 
ATOM      6  C   UNL     1     -12.213  13.700  64.448  0.00  0.00    +0.355 A 
ATOM      7  O   UNL     1     -12.768  12.828  63.708  0.00  0.00    -0.244 OA
ATOM      8  N   UNL     1     -12.347  15.006  64.127  0.00  0.00    -0.153 NA
ENDROOT
BRANCH   5   9
ATOM      9  C1* UNL     1     -10.942  11.850  65.468  0.00  0.00    +0.211 C 
ATOM     10  O4* UNL     1     -11.874  11.576  66.633  0.00  0.00    -0.332 OA
ATOM     11  C4* UNL     1     -10.905  10.976  67.600  0.00  0.00    +0.180 C 
ATOM     12  C3* UNL     1     -10.297  12.578  67.745  0.00  0.00    +0.186 C 
ATOM     13  O3* UNL     1      -9.097  12.107  68.533  0.00  0.00    -0.220 OA
ATOM     14  C2* UNL     1      -9.583  12.226  66.330  0.00  0.00    +0.089 C 
BRANCH  11  15
ATOM     15  C5* UNL     1     -11.883  11.160  68.897  0.00  0.00    +0.214 C 
ATOM     16  O5* UNL     1     -11.760  10.128  69.742  0.00  0.00    -0.218 OA
ENDBRANCH  11  15
ENDBRANCH   5   9
BRANCH   3  17
ATOM     17  C   UNL     1      -9.802  16.668  66.132  0.00  0.00    +0.424 C 
ATOM     18  F   UNL     1     -10.375  17.913  66.018  0.00  0.00    -0.166 F 
ATOM     19  F   UNL     1      -9.660  16.457  67.500  0.00  0.00    -0.166 F 
ATOM     20  F   UNL     1      -8.524  16.626  65.617  0.00  0.00    -0.166 F 
ENDBRANCH   3  17
TORSDOF 3
ENDMDL
MODEL 7
REMARK VINA RESULT:      -6.3      3.486      5.842
REMARK  Name = 
REMARK  3 active torsions:
REMARK  status: ('A' for Active; 'I' for Inactive)
REMARK    1  A    between atoms: N_6  and  C1*_7
REMARK    2  A    between atoms: C4*_11  and  C5*_12
REMARK    3  A    between atoms: C_16  and  C_17
REMARK                            x       y       z     vdW  Elec       q    Type
REMARK                         _______ _______ _______ _____ _____    ______ ____
ROOT
ATOM      1  O   UNL     1     -10.761  16.312  64.681  0.00  0.00    -0.265 OA
ATOM      2  C   UNL     1     -10.943  15.978  65.458  0.00  0.00    +0.288 A 
ATOM      3  C   UNL     1     -10.596  16.663  66.620  0.00  0.00    +0.146 A 
ATOM      4  C   UNL     1     -10.457  15.972  67.820  0.00  0.00    +0.091 A 
ATOM      5  N   UNL     1     -11.244  14.872  67.949  0.00  0.00    -0.256 N 
ATOM      6  C   UNL     1     -11.636  14.188  66.864  0.00  0.00    +0.355 A 
ATOM      7  O   UNL     1     -11.862  12.938  66.878  0.00  0.00    -0.244 OA
ATOM      8  N   UNL     1     -11.639  14.837  65.678  0.00  0.00    -0.153 NA
ENDROOT
BRANCH   5   9
ATOM      9  C1* UNL     1     -10.851  13.951  69.189  0.00  0.00    +0.211 C 
ATOM     10  O4* UNL     1     -12.310  13.800  69.576  0.00  0.00    -0.332 OA
ATOM     11  C4* UNL     1     -12.246  14.260  70.997  0.00  0.00    +0.180 C 
ATOM     12  C3* UNL     1     -12.015  15.823  70.316  0.00  0.00    +0.186 C 
ATOM     13  O3* UNL     1     -11.670  16.416  71.662  0.00  0.00    -0.220 OA
ATOM     14  C2* UNL     1     -10.498  15.288  70.094  0.00  0.00    +0.089 C 
BRANCH  11  15
ATOM     15  C5* UNL     1     -13.860  14.488  71.134  0.00  0.00    +0.214 C 
ATOM     16  O5* UNL     1     -14.298  14.102  72.339  0.00  0.00    -0.218 OA
ENDBRANCH  11  15
ENDBRANCH   5   9
BRANCH   3  17
ATOM     17  C   UNL     1     -10.066  18.035  66.424  0.00  0.00    +0.424 C 
ATOM     18  F   UNL     1     -10.800  18.785  65.534  0.00  0.00    -0.166 F 
ATOM     19  F   UNL     1     -10.127  18.735  67.626  0.00  0.00    -0.166 F 
ATOM     20  F   UNL     1      -8.729  17.984  66.093  0.00  0.00    -0.166 F 
ENDBRANCH   3  17
TORSDOF 3
ENDMDL
MODEL 8
REMARK VINA RESULT:      -6.2      2.973      5.529
REMARK  Name = 
REMARK  3 active torsions:
REMARK  status: ('A' for Active; 'I' for Inactive)
REMARK    1  A    between atoms: N_6  and  C1*_7
REMARK    2  A    between atoms: C4*_11  and  C5*_12
REMARK    3  A    between atoms: C_16  and  C_17
REMARK                            x       y       z     vdW  Elec       q    Type
REMARK                         _______ _______ _______ _____ _____    ______ ____
ROOT
ATOM      1  O   UNL     1      -9.433  13.040  67.662  0.00  0.00    -0.265 OA
ATOM      2  C   UNL     1      -9.880  13.445  68.283  0.00  0.00    +0.288 A 
ATOM      3  C   UNL     1     -11.023  12.859  68.823  0.00  0.00    +0.146 A 
ATOM      4  C   UNL     1     -11.978  13.652  69.453  0.00  0.00    +0.091 A 
ATOM      5  N   UNL     1     -11.497  14.770  70.056  0.00  0.00    -0.256 N 
ATOM      6  C   UNL     1     -10.383  15.360  69.600  0.00  0.00    +0.355 A 
ATOM      7  O   UNL     1     -10.173  16.610  69.695  0.00  0.00    -0.244 OA
ATOM      8  N   UNL     1      -9.525  14.609  68.875  0.00  0.00    -0.153 NA
ENDROOT
BRANCH   5   9
ATOM      9  C1* UNL     1     -12.636  15.791  70.505  0.00  0.00    +0.211 C 
ATOM     10  O4* UNL     1     -12.025  15.911  71.888  0.00  0.00    -0.332 OA
ATOM     11  C4* UNL     1     -13.212  15.555  72.723  0.00  0.00    +0.180 C 
ATOM     12  C3* UNL     1     -12.948  13.958  72.139  0.00  0.00    +0.186 C 
ATOM     13  O3* UNL     1     -14.262  13.476  72.710  0.00  0.00    -0.220 OA
ATOM     14  C2* UNL     1     -13.669  14.537  70.805  0.00  0.00    +0.089 C 
BRANCH  11  15
ATOM     15  C5* UNL     1     -12.340  15.273  74.078  0.00  0.00    +0.214 C 
ATOM     16  O5* UNL     1     -12.468  16.282  74.949  0.00  0.00    -0.218 OA
ENDBRANCH  11  15
ENDBRANCH   5   9
BRANCH   3  17
ATOM     17  C   UNL     1     -11.301  11.469  68.388  0.00  0.00    +0.424 C 
ATOM     18  F   UNL     1     -10.279  10.591  68.665  0.00  0.00    -0.166 F 
ATOM     19  F   UNL     1     -12.402  10.975  69.082  0.00  0.00    -0.166 F 
ATOM     20  F   UNL     1     -11.665  11.451  67.059  0.00  0.00    -0.166 F 
ENDBRANCH   3  17
TORSDOF 3
ENDMDL
MODEL 9
REMARK VINA RESULT:      -6.1      3.702      5.376
REMARK  Name = 
REMARK  3 active torsions:
REMARK  status: ('A' for Active; 'I' for Inactive)
REMARK    1  A    between atoms: N_6  and  C1*_7
REMARK    2  A    between atoms: C4*_11  and  C5*_12
REMARK    3  A    between atoms: C_16  and  C_17
REMARK                            x       y       z     vdW  Elec       q    Type
REMARK                         _______ _______ _______ _____ _____    ______ ____
ROOT
ATOM      1  O   UNL     1     -12.744  14.682  63.773  0.00  0.00    -0.265 OA
ATOM      2  C   UNL     1     -12.116  15.047  64.243  0.00  0.00    +0.288 A 
ATOM      3  C   UNL     1     -11.436  14.306  65.206  0.00  0.00    +0.146 A 
ATOM      4  C   UNL     1     -10.781  14.955  66.249  0.00  0.00    +0.091 A 
ATOM      5  N   UNL     1     -10.303  16.192  65.951  0.00  0.00    -0.256 N 
ATOM      6  C   UNL     1     -10.897  16.940  65.011  0.00  0.00    +0.355 A 
ATOM      7  O   UNL     1     -10.909  18.210  65.042  0.00  0.00    -0.244 OA
ATOM      8  N   UNL     1     -11.641  16.304  64.078  0.00  0.00    -0.153 NA
ENDROOT
BRANCH   5   9
ATOM      9  C1* UNL     1      -9.828  17.015  67.231  0.00  0.00    +0.211 C 
ATOM     10  O4* UNL     1      -8.723  17.677  66.431  0.00  0.00    -0.332 OA
ATOM     11  C4* UNL     1      -7.546  17.329  67.283  0.00  0.00    +0.180 C 
ATOM     12  C3* UNL     1      -7.782  15.733  66.683  0.00  0.00    +0.186 C 
ATOM     13  O3* UNL     1      -6.789  15.160  67.668  0.00  0.00    -0.220 OA
ATOM     14  C2* UNL     1      -8.979  15.708  67.780  0.00  0.00    +0.089 C 
BRANCH  11  15
ATOM     15  C5* UNL     1      -6.440  17.670  66.128  0.00  0.00    +0.214 C 
ATOM     16  O5* UNL     1      -6.941  18.517  65.220  0.00  0.00    -0.218 OA
ENDBRANCH  11  15
ENDBRANCH   5   9
BRANCH   3  17
ATOM     17  C   UNL     1     -11.746  12.855  65.240  0.00  0.00    +0.424 C 
ATOM     18  F   UNL     1     -11.330  12.232  66.394  0.00  0.00    -0.166 F 
ATOM     19  F   UNL     1     -13.126  12.673  65.206  0.00  0.00    -0.166 F 
ATOM     20  F   UNL     1     -11.264  12.240  64.105  0.00  0.00    -0.166 F 
ENDBRANCH   3  17
TORSDOF 3
ENDMDL
