MODEL 1
REMARK VINA RESULT:      -4.9      0.000      0.000
REMARK  Name = 
REMARK  3 active torsions:
REMARK  status: ('A' for Active; 'I' for Inactive)
REMARK    1  A    between atoms: C_5  and  N_6
REMARK    2  A    between atoms: N_9  and  C_10
REMARK    3  A    between atoms: C_10  and  C_11
REMARK                            x       y       z     vdW  Elec       q    Type
REMARK                         _______ _______ _______ _____ _____    ______ ____
ROOT
ATOM      1  C   UNL     1     -11.418  11.736  67.265  0.00  0.00    +0.072 C 
ATOM      2  C   UNL     1     -11.742  12.901  66.385  0.00  0.00    +0.125 A 
ATOM      3  N   UNL     1     -11.031  14.052  66.463  0.00  0.00    -0.255 N 
ATOM      4  C   UNL     1     -11.112  14.671  65.266  0.00  0.00    +0.378 A 
ATOM      5  C   UNL     1     -11.955  13.892  64.481  0.00  0.00    +0.195 A 
ATOM      6  N   UNL     1     -12.465  12.923  65.260  0.00  0.00    -0.223 NA
ENDROOT
BRANCH   4   7
ATOM      7  N   UNL     1     -10.907  16.057  64.964  0.00  0.00    +0.101 N 
ATOM      8  O   UNL     1     -11.648  16.646  63.960  0.00  0.00    -0.575 OA
ATOM      9  O   UNL     1      -9.841  16.608  65.329  0.00  0.00    +0.043 OA
ENDBRANCH   4   7
BRANCH   3  10
ATOM     10  C   UNL     1     -10.602  14.739  67.652  0.00  0.00    +0.148 C 
BRANCH  10  11
ATOM     11  C   UNL     1     -11.720  15.315  68.461  0.00  0.00    +0.207 C 
ATOM     12  O   UNL     1     -11.478  16.685  68.644  0.00  0.00    -0.218 OA
ENDBRANCH  10  11
ENDBRANCH   3  10
TORSDOF 3
ENDMDL
MODEL 2
REMARK VINA RESULT:      -4.8      1.977      3.331
REMARK  Name = 
REMARK  3 active torsions:
REMARK  status: ('A' for Active; 'I' for Inactive)
REMARK    1  A    between atoms: C_5  and  N_6
REMARK    2  A    between atoms: N_9  and  C_10
REMARK    3  A    between atoms: C_10  and  C_11
REMARK                            x       y       z     vdW  Elec       q    Type
REMARK                         _______ _______ _______ _____ _____    ______ ____
ROOT
ATOM      1  C   UNL     1      -8.424  13.945  67.446  0.00  0.00    +0.072 C 
ATOM      2  C   UNL     1      -9.897  13.746  67.286  0.00  0.00    +0.125 A 
ATOM      3  N   UNL     1     -10.479  13.805  66.064  0.00  0.00    -0.255 N 
ATOM      4  C   UNL     1     -11.605  13.062  66.105  0.00  0.00    +0.378 A 
ATOM      5  C   UNL     1     -11.725  12.608  67.413  0.00  0.00    +0.195 A 
ATOM      6  N   UNL     1     -10.765  13.200  68.145  0.00  0.00    -0.223 NA
ENDROOT
BRANCH   4   7
ATOM      7  N   UNL     1     -12.753  13.136  65.250  0.00  0.00    +0.101 N 
ATOM      8  O   UNL     1     -12.734  12.483  64.034  0.00  0.00    -0.575 OA
ATOM      9  O   UNL     1     -13.581  14.062  65.424  0.00  0.00    +0.043 OA
ENDBRANCH   4   7
BRANCH   3  10
ATOM     10  C   UNL     1     -10.234  14.766  65.022  0.00  0.00    +0.148 C 
BRANCH  10  11
ATOM     11  C   UNL     1     -10.634  16.163  65.373  0.00  0.00    +0.207 C 
ATOM     12  O   UNL     1     -11.289  16.731  64.270  0.00  0.00    -0.218 OA
ENDBRANCH  10  11
ENDBRANCH   3  10
TORSDOF 3
ENDMDL
MODEL 3
REMARK VINA RESULT:      -4.7      2.323      3.342
REMARK  Name = 
REMARK  3 active torsions:
REMARK  status: ('A' for Active; 'I' for Inactive)
REMARK    1  A    between atoms: C_5  and  N_6
REMARK    2  A    between atoms: N_9  and  C_10
REMARK    3  A    between atoms: C_10  and  C_11
REMARK                            x       y       z     vdW  Elec       q    Type
REMARK                         _______ _______ _______ _____ _____    ______ ____
ROOT
ATOM      1  C   UNL     1     -11.473  14.107  68.369  0.00  0.00    +0.072 C 
ATOM      2  C   UNL     1     -11.723  13.163  67.238  0.00  0.00    +0.125 A 
ATOM      3  N   UNL     1     -11.557  13.557  65.952  0.00  0.00    -0.255 N 
ATOM      4  C   UNL     1     -11.278  12.461  65.215  0.00  0.00    +0.378 A 
ATOM      5  C   UNL     1     -11.350  11.378  66.084  0.00  0.00    +0.195 A 
ATOM      6  N   UNL     1     -11.807  11.828  67.266  0.00  0.00    -0.223 NA
ENDROOT
BRANCH   4   7
ATOM      7  N   UNL     1     -11.432  12.274  63.803  0.00  0.00    +0.101 N 
ATOM      8  O   UNL     1     -12.690  12.042  63.285  0.00  0.00    -0.575 OA
ATOM      9  O   UNL     1     -10.431  11.953  63.119  0.00  0.00    +0.043 OA
ENDBRANCH   4   7
BRANCH   3  10
ATOM     10  C   UNL     1     -11.981  14.794  65.353  0.00  0.00    +0.148 C 
BRANCH  10  11
ATOM     11  C   UNL     1     -10.859  15.710  64.982  0.00  0.00    +0.207 C 
ATOM     12  O   UNL     1     -11.369  16.737  64.175  0.00  0.00    -0.218 OA
ENDBRANCH  10  11
ENDBRANCH   3  10
TORSDOF 3
ENDMDL
MODEL 4
REMARK VINA RESULT:      -4.6      1.541      3.048
REMARK  Name = 
REMARK  3 active torsions:
REMARK  status: ('A' for Active; 'I' for Inactive)
REMARK    1  A    between atoms: C_5  and  N_6
REMARK    2  A    between atoms: N_9  and  C_10
REMARK    3  A    between atoms: C_10  and  C_11
REMARK                            x       y       z     vdW  Elec       q    Type
REMARK                         _______ _______ _______ _____ _____    ______ ____
ROOT
ATOM      1  C   UNL     1     -11.695  12.094  67.586  0.00  0.00    +0.072 C 
ATOM      2  C   UNL     1     -11.078  13.430  67.325  0.00  0.00    +0.125 A 
ATOM      3  N   UNL     1     -11.058  13.956  66.077  0.00  0.00    -0.255 N 
ATOM      4  C   UNL     1     -11.002  15.300  66.194  0.00  0.00    +0.378 A 
ATOM      5  C   UNL     1     -10.915  15.569  67.555  0.00  0.00    +0.195 A 
ATOM      6  N   UNL     1     -10.776  14.397  68.199  0.00  0.00    -0.223 NA
ENDROOT
BRANCH   4   7
ATOM      7  N   UNL     1     -10.551  16.260  65.230  0.00  0.00    +0.101 N 
ATOM      8  O   UNL     1      -9.436  17.026  65.510  0.00  0.00    -0.575 OA
ATOM      9  O   UNL     1     -11.348  16.658  64.348  0.00  0.00    +0.043 OA
ENDBRANCH   4   7
BRANCH   3  10
ATOM     10  C   UNL     1     -10.743  13.282  64.846  0.00  0.00    +0.148 C 
BRANCH  10  11
ATOM     11  C   UNL     1     -11.878  13.217  63.876  0.00  0.00    +0.207 C 
ATOM     12  O   UNL     1     -13.012  12.734  64.546  0.00  0.00    -0.218 OA
ENDBRANCH  10  11
ENDBRANCH   3  10
TORSDOF 3
ENDMDL
MODEL 5
REMARK VINA RESULT:      -4.6      2.073      2.716
REMARK  Name = 
REMARK  3 active torsions:
REMARK  status: ('A' for Active; 'I' for Inactive)
REMARK    1  A    between atoms: C_5  and  N_6
REMARK    2  A    between atoms: N_9  and  C_10
REMARK    3  A    between atoms: C_10  and  C_11
REMARK                            x       y       z     vdW  Elec       q    Type
REMARK                         _______ _______ _______ _____ _____    ______ ____
ROOT
ATOM      1  C   UNL     1     -12.201  12.295  63.605  0.00  0.00    +0.072 C 
ATOM      2  C   UNL     1     -11.993  13.609  64.289  0.00  0.00    +0.125 A 
ATOM      3  N   UNL     1     -10.929  13.809  65.104  0.00  0.00    -0.255 N 
ATOM      4  C   UNL     1     -10.657  15.131  65.114  0.00  0.00    +0.378 A 
ATOM      5  C   UNL     1     -11.637  15.736  64.333  0.00  0.00    +0.195 A 
ATOM      6  N   UNL     1     -12.539  14.796  64.002  0.00  0.00    -0.223 NA
ENDROOT
BRANCH   4   7
ATOM      7  N   UNL     1      -9.940  15.886  66.098  0.00  0.00    +0.101 N 
ATOM      8  O   UNL     1     -10.603  16.331  67.224  0.00  0.00    -0.575 OA
ATOM      9  O   UNL     1      -8.865  16.444  65.772  0.00  0.00    +0.043 OA
ENDBRANCH   4   7
BRANCH   3  10
ATOM     10  C   UNL     1     -10.410  12.914  66.103  0.00  0.00    +0.148 C 
BRANCH  10  11
ATOM     11  C   UNL     1     -11.298  12.747  67.294  0.00  0.00    +0.207 C 
ATOM     12  O   UNL     1     -11.953  11.511  67.193  0.00  0.00    -0.218 OA
ENDBRANCH  10  11
ENDBRANCH   3  10
TORSDOF 3
ENDMDL
MODEL 6
REMARK VINA RESULT:      -4.6      2.397      3.901
REMARK  Name = 
REMARK  3 active torsions:
REMARK  status: ('A' for Active; 'I' for Inactive)
REMARK    1  A    between atoms: C_5  and  N_6
REMARK    2  A    between atoms: N_9  and  C_10
REMARK    3  A    between atoms: C_10  and  C_11
REMARK                            x       y       z     vdW  Elec       q    Type
REMARK                         _______ _______ _______ _____ _____    ______ ____
ROOT
ATOM      1  C   UNL     1      -9.738  17.214  68.661  0.00  0.00    +0.072 C 
ATOM      2  C   UNL     1     -10.864  16.321  68.249  0.00  0.00    +0.125 A 
ATOM      3  N   UNL     1     -10.755  15.519  67.163  0.00  0.00    -0.255 N 
ATOM      4  C   UNL     1     -11.585  14.469  67.338  0.00  0.00    +0.378 A 
ATOM      5  C   UNL     1     -12.255  14.698  68.535  0.00  0.00    +0.195 A 
ATOM      6  N   UNL     1     -11.923  15.927  68.965  0.00  0.00    -0.223 NA
ENDROOT
BRANCH   4   7
ATOM      7  N   UNL     1     -12.141  13.598  66.345  0.00  0.00    +0.101 N 
ATOM      8  O   UNL     1     -13.075  14.093  65.458  0.00  0.00    -0.575 OA
ATOM      9  O   UNL     1     -12.072  12.357  66.518  0.00  0.00    +0.043 OA
ENDBRANCH   4   7
BRANCH   3  10
ATOM     10  C   UNL     1     -10.209  15.856  65.875  0.00  0.00    +0.148 C 
BRANCH  10  11
ATOM     11  C   UNL     1     -10.794  17.091  65.268  0.00  0.00    +0.207 C 
ATOM     12  O   UNL     1     -11.438  16.738  64.073  0.00  0.00    -0.218 OA
ENDBRANCH  10  11
ENDBRANCH   3  10
TORSDOF 3
ENDMDL
MODEL 7
REMARK VINA RESULT:      -4.6      2.019      2.686
REMARK  Name = 
REMARK  3 active torsions:
REMARK  status: ('A' for Active; 'I' for Inactive)
REMARK    1  A    between atoms: C_5  and  N_6
REMARK    2  A    between atoms: N_9  and  C_10
REMARK    3  A    between atoms: C_10  and  C_11
REMARK                            x       y       z     vdW  Elec       q    Type
REMARK                         _______ _______ _______ _____ _____    ______ ____
ROOT
ATOM      1  C   UNL     1      -7.606  15.082  67.273  0.00  0.00    +0.072 C 
ATOM      2  C   UNL     1      -8.939  14.774  66.670  0.00  0.00    +0.125 A 
ATOM      3  N   UNL     1      -9.632  15.719  65.990  0.00  0.00    -0.255 N 
ATOM      4  C   UNL     1     -10.438  15.089  65.110  0.00  0.00    +0.378 A 
ATOM      5  C   UNL     1     -10.264  13.726  65.329  0.00  0.00    +0.195 A 
ATOM      6  N   UNL     1      -9.484  13.579  66.413  0.00  0.00    -0.223 NA
ENDROOT
BRANCH   4   7
ATOM      7  N   UNL     1     -11.629  15.581  64.482  0.00  0.00    +0.101 N 
ATOM      8  O   UNL     1     -12.638  14.696  64.160  0.00  0.00    -0.575 OA
ATOM      9  O   UNL     1     -11.596  16.693  63.904  0.00  0.00    +0.043 OA
ENDBRANCH   4   7
BRANCH   3  10
ATOM     10  C   UNL     1      -9.828  17.096  66.357  0.00  0.00    +0.148 C 
BRANCH  10  11
ATOM     11  C   UNL     1     -10.576  17.287  67.637  0.00  0.00    +0.207 C 
ATOM     12  O   UNL     1     -10.908  18.644  67.762  0.00  0.00    -0.218 OA
ENDBRANCH  10  11
ENDBRANCH   3  10
TORSDOF 3
ENDMDL
MODEL 8
REMARK VINA RESULT:      -4.6      2.516      3.386
REMARK  Name = 
REMARK  3 active torsions:
REMARK  status: ('A' for Active; 'I' for Inactive)
REMARK    1  A    between atoms: C_5  and  N_6
REMARK    2  A    between atoms: N_9  and  C_10
REMARK    3  A    between atoms: C_10  and  C_11
REMARK                            x       y       z     vdW  Elec       q    Type
REMARK                         _______ _______ _______ _____ _____    ______ ____
ROOT
ATOM      1  C   UNL     1     -10.264  16.496  67.541  0.00  0.00    +0.072 C 
ATOM      2  C   UNL     1     -10.547  15.842  66.226  0.00  0.00    +0.125 A 
ATOM      3  N   UNL     1     -11.077  14.597  66.167  0.00  0.00    -0.255 N 
ATOM      4  C   UNL     1     -11.741  14.483  64.997  0.00  0.00    +0.378 A 
ATOM      5  C   UNL     1     -11.535  15.678  64.316  0.00  0.00    +0.195 A 
ATOM      6  N   UNL     1     -10.650  16.406  65.017  0.00  0.00    -0.223 NA
ENDROOT
BRANCH   4   7
ATOM      7  N   UNL     1     -12.098  13.291  64.287  0.00  0.00    +0.101 N 
ATOM      8  O   UNL     1     -13.204  12.570  64.691  0.00  0.00    -0.575 OA
ATOM      9  O   UNL     1     -11.232  12.721  63.581  0.00  0.00    +0.043 OA
ENDBRANCH   4   7
BRANCH   3  10
ATOM     10  C   UNL     1     -10.707  13.449  66.951  0.00  0.00    +0.148 C 
BRANCH  10  11
ATOM     11  C   UNL     1     -11.760  13.000  67.912  0.00  0.00    +0.207 C 
ATOM     12  O   UNL     1     -12.056  11.653  67.655  0.00  0.00    -0.218 OA
ENDBRANCH  10  11
ENDBRANCH   3  10
TORSDOF 3
ENDMDL
MODEL 9
REMARK VINA RESULT:      -4.5      2.354      3.853
REMARK  Name = 
REMARK  3 active torsions:
REMARK  status: ('A' for Active; 'I' for Inactive)
REMARK    1  A    between atoms: C_5  and  N_6
REMARK    2  A    between atoms: N_9  and  C_10
REMARK    3  A    between atoms: C_10  and  C_11
REMARK                            x       y       z     vdW  Elec       q    Type
REMARK                         _______ _______ _______ _____ _____    ______ ____
ROOT
ATOM      1  C   UNL     1     -11.494  14.350  68.137  0.00  0.00    +0.072 C 
ATOM      2  C   UNL     1     -10.713  15.618  68.010  0.00  0.00    +0.125 A 
ATOM      3  N   UNL     1     -10.569  16.230  66.810  0.00  0.00    -0.255 N 
ATOM      4  C   UNL     1     -10.362  17.545  67.037  0.00  0.00    +0.378 A 
ATOM      5  C   UNL     1     -10.315  17.699  68.418  0.00  0.00    +0.195 A 
ATOM      6  N   UNL     1     -10.347  16.474  68.971  0.00  0.00    -0.223 NA
ENDROOT
BRANCH   4   7
ATOM      7  N   UNL     1      -9.754  18.513  66.173  0.00  0.00    +0.101 N 
ATOM      8  O   UNL     1      -8.383  18.508  66.013  0.00  0.00    -0.575 OA
ATOM      9  O   UNL     1     -10.391  19.554  65.882  0.00  0.00    +0.043 OA
ENDBRANCH   4   7
BRANCH   3  10
ATOM     10  C   UNL     1     -10.271  15.617  65.544  0.00  0.00    +0.148 C 
BRANCH  10  11
ATOM     11  C   UNL     1     -11.452  15.482  64.637  0.00  0.00    +0.207 C 
ATOM     12  O   UNL     1     -11.602  16.678  63.919  0.00  0.00    -0.218 OA
ENDBRANCH  10  11
ENDBRANCH   3  10
TORSDOF 3
ENDMDL
