MODEL 1
REMARK VINA RESULT:      -4.6      0.000      0.000
REMARK  Name = 
REMARK  3 active torsions:
REMARK  status: ('A' for Active; 'I' for Inactive)
REMARK    1  A    between atoms: C_2  and  C_4
REMARK    2  A    between atoms: C_4  and  C_6
REMARK    3  A    between atoms: C_6  and  C_8
REMARK                            x       y       z     vdW  Elec       q    Type
REMARK                         _______ _______ _______ _____ _____    ______ ____
ROOT
ATOM      1  C   UNL     1     -10.739  14.606  65.000  0.00  0.00    +0.182 C 
ATOM      2  S   UNL     1      -9.843  14.655  66.672  0.00  0.00    -0.070 S 
ENDROOT
BRANCH   1   4
ATOM      3  O   UNL     1     -11.660  16.479  63.911  0.00  0.00    -0.245 OA
ATOM      4  C   UNL     1     -10.916  16.141  64.854  0.00  0.00    +0.377 C 
ATOM      5  O   UNL     1     -10.088  16.998  65.537  0.00  0.00    -0.245 OA
ENDBRANCH   1   4
BRANCH   1   6
ATOM      6  C   UNL     1     -12.223  14.352  65.635  0.00  0.00    +0.182 C 
ATOM      7  S   UNL     1     -11.593  14.198  67.422  0.00  0.00    -0.070 S 
BRANCH   6   8
ATOM      8  C   UNL     1     -12.310  12.826  65.384  0.00  0.00    +0.377 C 
ATOM      9  O   UNL     1     -13.064  12.474  64.261  0.00  0.00    -0.245 OA
ATOM     10  O   UNL     1     -12.112  11.976  66.241  0.00  0.00    -0.245 OA
ENDBRANCH   6   8
ENDBRANCH   1   6
TORSDOF 3
ENDMDL
MODEL 2
REMARK VINA RESULT:      -4.6      0.168      3.679
REMARK  Name = 
REMARK  3 active torsions:
REMARK  status: ('A' for Active; 'I' for Inactive)
REMARK    1  A    between atoms: C_2  and  C_4
REMARK    2  A    between atoms: C_4  and  C_6
REMARK    3  A    between atoms: C_6  and  C_8
REMARK                            x       y       z     vdW  Elec       q    Type
REMARK                         _______ _______ _______ _____ _____    ______ ____
ROOT
ATOM      1  C   UNL     1     -12.250  14.288  65.766  0.00  0.00    +0.182 C 
ATOM      2  S   UNL     1     -11.476  14.050  67.482  0.00  0.00    -0.070 S 
ENDROOT
BRANCH   1   4
ATOM      3  O   UNL     1     -12.945  12.548  64.341  0.00  0.00    -0.245 OA
ATOM      4  C   UNL     1     -12.347  12.779  65.411  0.00  0.00    +0.377 C 
ATOM      5  O   UNL     1     -12.044  11.829  66.354  0.00  0.00    -0.245 OA
ENDBRANCH   1   4
BRANCH   1   6
ATOM      6  C   UNL     1     -10.830  14.524  64.994  0.00  0.00    +0.182 C 
ATOM      7  S   UNL     1      -9.785  14.435  66.580  0.00  0.00    -0.070 S 
BRANCH   6   8
ATOM      8  C   UNL     1     -10.867  16.071  64.936  0.00  0.00    +0.377 C 
ATOM      9  O   UNL     1     -11.651  16.586  63.900  0.00  0.00    -0.245 OA
ATOM     10  O   UNL     1     -10.025  16.798  65.444  0.00  0.00    -0.245 OA
ENDBRANCH   6   8
ENDBRANCH   1   6
TORSDOF 3
ENDMDL
MODEL 3
REMARK VINA RESULT:      -4.4      0.937      1.456
REMARK  Name = 
REMARK  3 active torsions:
REMARK  status: ('A' for Active; 'I' for Inactive)
REMARK    1  A    between atoms: C_2  and  C_4
REMARK    2  A    between atoms: C_4  and  C_6
REMARK    3  A    between atoms: C_6  and  C_8
REMARK                            x       y       z     vdW  Elec       q    Type
REMARK                         _______ _______ _______ _____ _____    ______ ____
ROOT
ATOM      1  C   UNL     1     -10.529  14.571  65.076  0.00  0.00    +0.182 C 
ATOM      2  S   UNL     1      -9.636  14.259  66.722  0.00  0.00    -0.070 S 
ENDROOT
BRANCH   1   4
ATOM      3  O   UNL     1     -10.355  16.529  66.370  0.00  0.00    -0.245 OA
ATOM      4  C   UNL     1     -10.641  16.112  65.230  0.00  0.00    +0.377 C 
ATOM      5  O   UNL     1     -11.272  16.856  64.264  0.00  0.00    -0.245 OA
ENDBRANCH   1   4
BRANCH   1   6
ATOM      6  C   UNL     1     -12.024  14.262  65.658  0.00  0.00    +0.182 C 
ATOM      7  S   UNL     1     -11.444  12.874  66.822  0.00  0.00    -0.070 S 
BRANCH   6   8
ATOM      8  C   UNL     1     -12.504  13.310  64.534  0.00  0.00    +0.377 C 
ATOM      9  O   UNL     1     -12.554  13.901  63.269  0.00  0.00    -0.245 OA
ATOM     10  O   UNL     1     -13.153  12.292  64.726  0.00  0.00    -0.245 OA
ENDBRANCH   6   8
ENDBRANCH   1   6
TORSDOF 3
ENDMDL
MODEL 4
REMARK VINA RESULT:      -4.1      1.365      3.579
REMARK  Name = 
REMARK  3 active torsions:
REMARK  status: ('A' for Active; 'I' for Inactive)
REMARK    1  A    between atoms: C_2  and  C_4
REMARK    2  A    between atoms: C_4  and  C_6
REMARK    3  A    between atoms: C_6  and  C_8
REMARK                            x       y       z     vdW  Elec       q    Type
REMARK                         _______ _______ _______ _____ _____    ______ ____
ROOT
ATOM      1  C   UNL     1     -11.900  14.101  66.312  0.00  0.00    +0.182 C 
ATOM      2  S   UNL     1     -11.175  14.771  67.932  0.00  0.00    -0.070 S 
ENDROOT
BRANCH   1   4
ATOM      3  O   UNL     1     -12.018  11.871  67.059  0.00  0.00    -0.245 OA
ATOM      4  C   UNL     1     -11.298  12.674  66.431  0.00  0.00    +0.377 C 
ATOM      5  O   UNL     1      -9.981  12.454  66.113  0.00  0.00    -0.245 OA
ENDBRANCH   1   4
BRANCH   1   6
ATOM      6  C   UNL     1     -10.703  14.680  65.363  0.00  0.00    +0.182 C 
ATOM      7  S   UNL     1     -10.354  16.186  66.471  0.00  0.00    -0.070 S 
BRANCH   6   8
ATOM      8  C   UNL     1     -11.582  15.453  64.349  0.00  0.00    +0.377 C 
ATOM      9  O   UNL     1     -11.289  16.817  64.262  0.00  0.00    -0.245 OA
ATOM     10  O   UNL     1     -12.670  15.065  63.946  0.00  0.00    -0.245 OA
ENDBRANCH   6   8
ENDBRANCH   1   6
TORSDOF 3
ENDMDL
MODEL 5
REMARK VINA RESULT:      -4.0      1.942      2.876
REMARK  Name = 
REMARK  3 active torsions:
REMARK  status: ('A' for Active; 'I' for Inactive)
REMARK    1  A    between atoms: C_2  and  C_4
REMARK    2  A    between atoms: C_4  and  C_6
REMARK    3  A    between atoms: C_6  and  C_8
REMARK                            x       y       z     vdW  Elec       q    Type
REMARK                         _______ _______ _______ _____ _____    ______ ____
ROOT
ATOM      1  C   UNL     1     -11.271  13.425  65.753  0.00  0.00    +0.182 C 
ATOM      2  S   UNL     1     -10.511  15.118  65.353  0.00  0.00    -0.070 S 
ENDROOT
BRANCH   1   4
ATOM      3  O   UNL     1     -13.146  12.498  64.673  0.00  0.00    -0.245 OA
ATOM      4  C   UNL     1     -12.479  13.547  64.785  0.00  0.00    +0.377 C 
ATOM      5  O   UNL     1     -12.584  14.629  63.947  0.00  0.00    -0.245 OA
ENDBRANCH   1   4
BRANCH   1   6
ATOM      6  C   UNL     1     -12.092  13.939  67.069  0.00  0.00    +0.182 C 
ATOM      7  S   UNL     1     -10.762  15.194  67.590  0.00  0.00    -0.070 S 
BRANCH   6   8
ATOM      8  C   UNL     1     -11.638  12.835  68.055  0.00  0.00    +0.377 C 
ATOM      9  O   UNL     1     -12.052  11.548  67.702  0.00  0.00    -0.245 OA
ATOM     10  O   UNL     1     -11.309  13.042  69.215  0.00  0.00    -0.245 OA
ENDBRANCH   6   8
ENDBRANCH   1   6
TORSDOF 3
ENDMDL
MODEL 6
REMARK VINA RESULT:      -4.0      2.396      4.426
REMARK  Name = 
REMARK  3 active torsions:
REMARK  status: ('A' for Active; 'I' for Inactive)
REMARK    1  A    between atoms: C_2  and  C_4
REMARK    2  A    between atoms: C_4  and  C_6
REMARK    3  A    between atoms: C_6  and  C_8
REMARK                            x       y       z     vdW  Elec       q    Type
REMARK                         _______ _______ _______ _____ _____    ______ ____
ROOT
ATOM      1  C   UNL     1     -10.494  16.124  66.527  0.00  0.00    +0.182 C 
ATOM      2  S   UNL     1      -8.765  15.343  66.549  0.00  0.00    -0.070 S 
ENDROOT
BRANCH   1   4
ATOM      3  O   UNL     1     -11.217  16.767  64.381  0.00  0.00    -0.245 OA
ATOM      4  C   UNL     1     -10.815  15.791  65.045  0.00  0.00    +0.377 C 
ATOM      5  O   UNL     1     -10.905  14.483  64.637  0.00  0.00    -0.245 OA
ENDBRANCH   1   4
BRANCH   1   6
ATOM      6  C   UNL     1      -9.968  17.640  66.220  0.00  0.00    +0.182 C 
ATOM      7  S   UNL     1      -8.253  17.358  66.992  0.00  0.00    -0.070 S 
BRANCH   6   8
ATOM      8  C   UNL     1     -10.569  18.337  67.465  0.00  0.00    +0.377 C 
ATOM      9  O   UNL     1     -10.948  17.459  68.485  0.00  0.00    -0.245 OA
ATOM     10  O   UNL     1     -11.050  19.462  67.459  0.00  0.00    -0.245 OA
ENDBRANCH   6   8
ENDBRANCH   1   6
TORSDOF 3
ENDMDL
MODEL 7
REMARK VINA RESULT:      -4.0      1.383      1.988
REMARK  Name = 
REMARK  3 active torsions:
REMARK  status: ('A' for Active; 'I' for Inactive)
REMARK    1  A    between atoms: C_2  and  C_4
REMARK    2  A    between atoms: C_4  and  C_6
REMARK    3  A    between atoms: C_6  and  C_8
REMARK                            x       y       z     vdW  Elec       q    Type
REMARK                         _______ _______ _______ _____ _____    ______ ____
ROOT
ATOM      1  C   UNL     1     -10.255  14.246  65.366  0.00  0.00    +0.182 C 
ATOM      2  S   UNL     1      -9.382  13.281  66.746  0.00  0.00    -0.070 S 
ENDROOT
BRANCH   1   4
ATOM      3  O   UNL     1      -9.085  15.650  66.850  0.00  0.00    -0.245 OA
ATOM      4  C   UNL     1      -9.778  15.655  65.813  0.00  0.00    +0.377 C 
ATOM      5  O   UNL     1     -10.332  16.779  65.252  0.00  0.00    -0.245 OA
ENDBRANCH   1   4
BRANCH   1   6
ATOM      6  C   UNL     1     -11.694  14.334  66.135  0.00  0.00    +0.182 C 
ATOM      7  S   UNL     1     -11.600  12.564  66.824  0.00  0.00    -0.070 S 
BRANCH   6   8
ATOM      8  C   UNL     1     -12.605  13.970  64.937  0.00  0.00    +0.377 C 
ATOM      9  O   UNL     1     -13.049  12.645  64.938  0.00  0.00    -0.245 OA
ATOM     10  O   UNL     1     -12.640  14.594  63.885  0.00  0.00    -0.245 OA
ENDBRANCH   6   8
ENDBRANCH   1   6
TORSDOF 3
ENDMDL
MODEL 8
REMARK VINA RESULT:      -3.9      1.795      3.321
REMARK  Name = 
REMARK  3 active torsions:
REMARK  status: ('A' for Active; 'I' for Inactive)
REMARK    1  A    between atoms: C_2  and  C_4
REMARK    2  A    between atoms: C_4  and  C_6
REMARK    3  A    between atoms: C_6  and  C_8
REMARK                            x       y       z     vdW  Elec       q    Type
REMARK                         _______ _______ _______ _____ _____    ______ ____
ROOT
ATOM      1  C   UNL     1     -11.730  14.488  65.723  0.00  0.00    +0.182 C 
ATOM      2  S   UNL     1     -12.034  12.631  65.476  0.00  0.00    -0.070 S 
ENDROOT
BRANCH   1   4
ATOM      3  O   UNL     1     -12.599  13.990  63.592  0.00  0.00    -0.245 OA
ATOM      4  C   UNL     1     -12.241  14.933  64.325  0.00  0.00    +0.377 C 
ATOM      5  O   UNL     1     -12.027  16.218  63.891  0.00  0.00    -0.245 OA
ENDBRANCH   1   4
BRANCH   1   6
ATOM      6  C   UNL     1     -10.156  14.440  65.289  0.00  0.00    +0.182 C 
ATOM      7  S   UNL     1      -9.754  12.926  66.366  0.00  0.00    -0.070 S 
BRANCH   6   8
ATOM      8  C   UNL     1      -9.617  15.480  66.301  0.00  0.00    +0.377 C 
ATOM      9  O   UNL     1      -9.113  16.643  65.711  0.00  0.00    -0.245 OA
ATOM     10  O   UNL     1      -9.277  15.214  67.445  0.00  0.00    -0.245 OA
ENDBRANCH   6   8
ENDBRANCH   1   6
TORSDOF 3
ENDMDL
MODEL 9
REMARK VINA RESULT:      -3.9      1.792      3.498
REMARK  Name = 
REMARK  3 active torsions:
REMARK  status: ('A' for Active; 'I' for Inactive)
REMARK    1  A    between atoms: C_2  and  C_4
REMARK    2  A    between atoms: C_4  and  C_6
REMARK    3  A    between atoms: C_6  and  C_8
REMARK                            x       y       z     vdW  Elec       q    Type
REMARK                         _______ _______ _______ _____ _____    ______ ____
ROOT
ATOM      1  C   UNL     1     -12.139  14.028  66.745  0.00  0.00    +0.182 C 
ATOM      2  S   UNL     1     -10.942  15.289  67.505  0.00  0.00    -0.070 S 
ENDROOT
BRANCH   1   4
ATOM      3  O   UNL     1     -10.749  13.077  68.389  0.00  0.00    -0.245 OA
ATOM      4  C   UNL     1     -11.639  12.804  67.559  0.00  0.00    +0.377 C 
ATOM      5  O   UNL     1     -11.970  11.532  67.163  0.00  0.00    -0.245 OA
ENDBRANCH   1   4
BRANCH   1   6
ATOM      6  C   UNL     1     -11.213  13.715  65.436  0.00  0.00    +0.182 C 
ATOM      7  S   UNL     1     -10.451  15.456  65.376  0.00  0.00    -0.070 S 
BRANCH   6   8
ATOM      8  C   UNL     1     -12.277  13.989  64.345  0.00  0.00    +0.377 C 
ATOM      9  O   UNL     1     -12.511  12.907  63.491  0.00  0.00    -0.245 OA
ATOM     10  O   UNL     1     -12.607  15.106  63.971  0.00  0.00    -0.245 OA
ENDBRANCH   6   8
ENDBRANCH   1   6
TORSDOF 3
ENDMDL
