MODEL 1
REMARK VINA RESULT:      -7.5      0.000      0.000
REMARK  Name = 
REMARK  9 active torsions:
REMARK  status: ('A' for Active; 'I' for Inactive)
REMARK    1  A    between atoms: C_2  and  C_3
REMARK    2  A    between atoms: N_5  and  C_6
REMARK    3  A    between atoms: C_8  and  N_9
REMARK    4  A    between atoms: C_14  and  C_15
REMARK    5  A    between atoms: C_26  and  O_27
REMARK    6  A    between atoms: C_30  and  N_31
REMARK    7  A    between atoms: N_31  and  C_33
REMARK    8  A    between atoms: C_33  and  C_34
REMARK    9  A    between atoms: C_34  and  N_35
REMARK                            x       y       z     vdW  Elec       q    Type
REMARK                         _______ _______ _______ _____ _____    ______ ____
ROOT
ATOM      1  C   UNL     1     -10.851  14.307  66.962  0.00  0.00    +0.088 A 
ATOM      2  C   UNL     1     -11.164  14.678  68.258  0.00  0.00    +0.067 A 
ATOM      3  C   UNL     1     -11.325  16.036  68.502  0.00  0.00    +0.054 A 
ATOM      4  C   UNL     1     -10.610  16.936  67.727  0.00  0.00    +0.155 A 
ATOM      5  C   UNL     1     -10.281  16.558  66.432  0.00  0.00    +0.109 A 
ATOM      6  C   UNL     1     -10.065  15.198  66.243  0.00  0.00    +0.038 A 
ENDROOT
BRANCH   5   7
ATOM      7  N   UNL     1      -9.386  17.431  65.733  0.00  0.00    -0.175 NA
ATOM      8  C   UNL     1      -7.988  17.334  66.027  0.00  0.00    +0.241 A 
ATOM      9  N   UNL     1      -7.129  18.237  65.496  0.00  0.00    -0.212 NA
ATOM     10  C   UNL     1      -5.875  18.362  65.991  0.00  0.00    +0.087 A 
ATOM     11  C   UNL     1      -5.616  17.803  67.230  0.00  0.00    +0.040 A 
ATOM     12  C   UNL     1      -6.359  16.697  67.625  0.00  0.00    +0.103 A 
ATOM     13  N   UNL     1      -7.541  16.528  67.020  0.00  0.00    -0.211 NA
BRANCH  10  14
ATOM     14  C   UNL     1      -4.822  18.861  65.111  0.00  0.00    +0.036 A 
ATOM     15  C   UNL     1      -4.296  20.138  65.069  0.00  0.00    +0.019 A 
ATOM     16  C   UNL     1      -3.316  20.087  64.098  0.00  0.00    +0.060 A 
ATOM     17  C   UNL     1      -2.613  21.256  63.836  0.00  0.00    +0.017 A 
ATOM     18  C   UNL     1      -2.425  22.101  64.923  0.00  0.00    +0.001 A 
ATOM     19  C   UNL     1      -3.407  22.155  65.901  0.00  0.00    +0.000 A 
ATOM     20  N   UNL     1      -3.557  18.983  63.359  0.00  0.00    -0.324 N 
ATOM     21  C   UNL     1      -2.934  18.654  62.103  0.00  0.00    +0.130 C 
ATOM     22  C   UNL     1      -4.406  21.196  65.953  0.00  0.00    +0.002 A 
ATOM     23  C   UNL     1      -4.226  18.090  64.128  0.00  0.00    +0.077 A 
ENDBRANCH  10  14
ENDBRANCH   5   7
BRANCH   1  25
ATOM     24  C   UNL     1     -12.389  13.107  65.412  0.00  0.00    +0.269 C 
ATOM     25  N   UNL     1     -11.338  13.091  66.381  0.00  0.00    -0.174 NA
ATOM     26  O   UNL     1     -13.121  14.140  65.352  0.00  0.00    -0.268 OA
BRANCH  24  28
ATOM     27  C   UNL     1     -11.219  12.304  63.516  0.00  0.00    +0.005 C 
ATOM     28  C   UNL     1     -12.351  12.265  64.213  0.00  0.00    +0.060 C 
ENDBRANCH  24  28
ENDBRANCH   1  25
BRANCH   4  29
ATOM     29  O   UNL     1     -10.639  18.310  67.984  0.00  0.00    -0.470 OA
ATOM     30  C   UNL     1      -9.680  18.788  68.923  0.00  0.00    +0.253 C 
ENDBRANCH   4  29
BRANCH   2  31
ATOM     31  N   UNL     1     -11.956  13.775  69.037  0.00  0.00    -0.303 N 
ATOM     32  C   UNL     1     -11.454  12.424  69.274  0.00  0.00    +0.112 C 
BRANCH  31  33
ATOM     33  C   UNL     1     -12.747  14.360  70.102  0.00  0.00    +0.108 C 
BRANCH  33  34
ATOM     34  C   UNL     1     -12.774  13.508  71.342  0.00  0.00    +0.094 C 
BRANCH  34  35
ATOM     35  N   UNL     1     -13.625  14.162  72.308  0.00  0.00    -0.269 NA
ATOM     36  C   UNL     1     -14.675  14.943  71.703  0.00  0.00    +0.090 C 
ATOM     37  C   UNL     1     -12.879  14.893  73.299  0.00  0.00    +0.090 C 
ENDBRANCH  34  35
ENDBRANCH  33  34
ENDBRANCH  31  33
ENDBRANCH   2  31
TORSDOF 9
ENDMDL
MODEL 2
REMARK VINA RESULT:      -7.3      2.388     10.261
REMARK  Name = 
REMARK  9 active torsions:
REMARK  status: ('A' for Active; 'I' for Inactive)
REMARK    1  A    between atoms: C_2  and  C_3
REMARK    2  A    between atoms: N_5  and  C_6
REMARK    3  A    between atoms: C_8  and  N_9
REMARK    4  A    between atoms: C_14  and  C_15
REMARK    5  A    between atoms: C_26  and  O_27
REMARK    6  A    between atoms: C_30  and  N_31
REMARK    7  A    between atoms: N_31  and  C_33
REMARK    8  A    between atoms: C_33  and  C_34
REMARK    9  A    between atoms: C_34  and  N_35
REMARK                            x       y       z     vdW  Elec       q    Type
REMARK                         _______ _______ _______ _____ _____    ______ ____
ROOT
ATOM      1  C   UNL     1      -5.958  18.826  67.771  0.00  0.00    +0.088 A 
ATOM      2  C   UNL     1      -5.995  18.845  66.388  0.00  0.00    +0.067 A 
ATOM      3  C   UNL     1      -7.241  18.997  65.794  0.00  0.00    +0.054 A 
ATOM      4  C   UNL     1      -8.355  18.515  66.464  0.00  0.00    +0.155 A 
ATOM      5  C   UNL     1      -8.313  18.479  67.851  0.00  0.00    +0.109 A 
ATOM      6  C   UNL     1      -7.057  18.261  68.404  0.00  0.00    +0.038 A 
ENDROOT
BRANCH   5   7
ATOM      7  N   UNL     1      -9.400  17.804  68.494  0.00  0.00    -0.175 NA
ATOM      8  C   UNL     1      -9.448  16.375  68.407  0.00  0.00    +0.241 A 
ATOM      9  N   UNL     1     -10.533  15.713  68.876  0.00  0.00    -0.212 NA
ATOM     10  C   UNL     1     -10.745  14.421  68.534  0.00  0.00    +0.087 A 
ATOM     11  C   UNL     1     -10.036  13.916  67.459  0.00  0.00    +0.040 A 
ATOM     12  C   UNL     1      -8.790  14.462  67.174  0.00  0.00    +0.103 A 
ATOM     13  N   UNL     1      -8.561  15.696  67.640  0.00  0.00    -0.211 NA
BRANCH  10  14
ATOM     14  C   UNL     1     -11.518  13.576  69.441  0.00  0.00    +0.036 A 
ATOM     15  C   UNL     1     -12.260  13.975  70.536  0.00  0.00    +0.019 A 
ATOM     16  C   UNL     1     -12.817  12.813  71.030  0.00  0.00    +0.060 A 
ATOM     17  C   UNL     1     -13.623  12.918  72.156  0.00  0.00    +0.017 A 
ATOM     18  C   UNL     1     -14.346  14.099  72.270  0.00  0.00    +0.001 A 
ATOM     19  C   UNL     1     -13.790  15.269  71.773  0.00  0.00    +0.000 A 
ATOM     20  N   UNL     1     -12.108  11.788  70.509  0.00  0.00    -0.324 N 
ATOM     21  C   UNL     1     -12.181  10.412  70.925  0.00  0.00    +0.130 C 
ATOM     22  C   UNL     1     -12.687  15.228  70.937  0.00  0.00    +0.002 A 
ATOM     23  C   UNL     1     -11.564  12.196  69.337  0.00  0.00    +0.077 A 
ENDBRANCH  10  14
ENDBRANCH   5   7
BRANCH   1  25
ATOM     24  C   UNL     1      -4.916  20.733  68.990  0.00  0.00    +0.269 C 
ATOM     25  N   UNL     1      -4.866  19.387  68.509  0.00  0.00    -0.174 NA
ATOM     26  O   UNL     1      -5.748  21.522  68.450  0.00  0.00    -0.268 OA
BRANCH  24  28
ATOM     27  C   UNL     1      -4.826  20.278  71.312  0.00  0.00    +0.005 C 
ATOM     28  C   UNL     1      -4.452  21.095  70.331  0.00  0.00    +0.060 C 
ENDBRANCH  24  28
ENDBRANCH   1  25
BRANCH   4  29
ATOM     29  O   UNL     1      -9.627  18.536  65.882  0.00  0.00    -0.470 OA
ATOM     30  C   UNL     1     -10.355  19.753  66.023  0.00  0.00    +0.253 C 
ENDBRANCH   4  29
BRANCH   2  31
ATOM     31  N   UNL     1      -4.870  19.401  65.698  0.00  0.00    -0.303 N 
ATOM     32  C   UNL     1      -3.883  18.494  65.117  0.00  0.00    +0.112 C 
BRANCH  31  33
ATOM     33  C   UNL     1      -5.096  20.644  64.986  0.00  0.00    +0.108 C 
BRANCH  33  34
ATOM     34  C   UNL     1      -4.547  20.618  63.584  0.00  0.00    +0.094 C 
BRANCH  34  35
ATOM     35  N   UNL     1      -5.654  20.397  62.684  0.00  0.00    -0.269 NA
ATOM     36  C   UNL     1      -5.295  19.626  61.520  0.00  0.00    +0.090 C 
ATOM     37  C   UNL     1      -6.356  21.612  62.359  0.00  0.00    +0.090 C 
ENDBRANCH  34  35
ENDBRANCH  33  34
ENDBRANCH  31  33
ENDBRANCH   2  31
TORSDOF 9
ENDMDL
MODEL 3
REMARK VINA RESULT:      -7.2      4.497     10.405
REMARK  Name = 
REMARK  9 active torsions:
REMARK  status: ('A' for Active; 'I' for Inactive)
REMARK    1  A    between atoms: C_2  and  C_3
REMARK    2  A    between atoms: N_5  and  C_6
REMARK    3  A    between atoms: C_8  and  N_9
REMARK    4  A    between atoms: C_14  and  C_15
REMARK    5  A    between atoms: C_26  and  O_27
REMARK    6  A    between atoms: C_30  and  N_31
REMARK    7  A    between atoms: N_31  and  C_33
REMARK    8  A    between atoms: C_33  and  C_34
REMARK    9  A    between atoms: C_34  and  N_35
REMARK                            x       y       z     vdW  Elec       q    Type
REMARK                         _______ _______ _______ _____ _____    ______ ____
ROOT
ATOM      1  C   UNL     1     -10.180  14.581  68.492  0.00  0.00    +0.088 A 
ATOM      2  C   UNL     1      -9.817  15.081  67.254  0.00  0.00    +0.067 A 
ATOM      3  C   UNL     1     -10.477  14.562  66.148  0.00  0.00    +0.054 A 
ATOM      4  C   UNL     1     -10.940  13.256  66.207  0.00  0.00    +0.155 A 
ATOM      5  C   UNL     1     -11.288  12.748  67.451  0.00  0.00    +0.109 A 
ATOM      6  C   UNL     1     -10.560  13.246  68.525  0.00  0.00    +0.038 A 
ENDROOT
BRANCH   5   7
ATOM      7  N   UNL     1     -11.580  11.347  67.496  0.00  0.00    -0.175 NA
ATOM      8  C   UNL     1     -10.481  10.430  67.433  0.00  0.00    +0.241 A 
ATOM      9  N   UNL     1     -10.724   9.102  67.327  0.00  0.00    -0.212 NA
ATOM     10  C   UNL     1      -9.736   8.254  66.957  0.00  0.00    +0.087 A 
ATOM     11  C   UNL     1      -8.604   8.800  66.380  0.00  0.00    +0.040 A 
ATOM     12  C   UNL     1      -8.244  10.097  66.728  0.00  0.00    +0.103 A 
ATOM     13  N   UNL     1      -9.219  10.873  67.216  0.00  0.00    -0.211 NA
BRANCH  10  14
ATOM     14  C   UNL     1      -9.812   6.861  67.390  0.00  0.00    +0.036 A 
ATOM     15  C   UNL     1      -9.690   6.372  68.677  0.00  0.00    +0.019 A 
ATOM     16  C   UNL     1      -9.869   5.008  68.557  0.00  0.00    +0.060 A 
ATOM     17  C   UNL     1      -9.791   4.248  69.717  0.00  0.00    +0.017 A 
ATOM     18  C   UNL     1     -10.229   4.874  70.877  0.00  0.00    +0.001 A 
ATOM     19  C   UNL     1     -10.052   6.244  71.001  0.00  0.00    +0.000 A 
ATOM     20  N   UNL     1      -9.688   4.704  67.254  0.00  0.00    -0.324 N 
ATOM     21  C   UNL     1      -9.549   3.380  66.706  0.00  0.00    +0.130 C 
ATOM     22  C   UNL     1      -9.715   7.015  69.901  0.00  0.00    +0.002 A 
ATOM     23  C   UNL     1      -9.976   5.802  66.513  0.00  0.00    +0.077 A 
ENDBRANCH  10  14
ENDBRANCH   5   7
BRANCH   1  25
ATOM     24  C   UNL     1     -11.419  15.951  70.165  0.00  0.00    +0.269 C 
ATOM     25  N   UNL     1     -10.196  15.401  69.667  0.00  0.00    -0.174 NA
ATOM     26  O   UNL     1     -12.404  16.016  69.369  0.00  0.00    -0.268 OA
BRANCH  24  28
ATOM     27  C   UNL     1     -12.993  15.673  71.913  0.00  0.00    +0.005 C 
ATOM     28  C   UNL     1     -11.736  15.969  71.595  0.00  0.00    +0.060 C 
ENDBRANCH  24  28
ENDBRANCH   1  25
BRANCH   4  29
ATOM     29  O   UNL     1     -11.518  12.632  65.098  0.00  0.00    -0.470 OA
ATOM     30  C   UNL     1     -10.622  12.269  64.051  0.00  0.00    +0.253 C 
ENDBRANCH   4  29
BRANCH   2  31
ATOM     31  N   UNL     1      -9.398  16.449  67.183  0.00  0.00    -0.303 N 
ATOM     32  C   UNL     1      -8.053  16.748  66.700  0.00  0.00    +0.112 C 
BRANCH  31  33
ATOM     33  C   UNL     1     -10.424  17.425  66.870  0.00  0.00    +0.108 C 
BRANCH  33  34
ATOM     34  C   UNL     1     -10.456  18.569  67.847  0.00  0.00    +0.094 C 
BRANCH  34  35
ATOM     35  N   UNL     1     -10.155  19.779  67.118  0.00  0.00    -0.269 NA
ATOM     36  C   UNL     1     -10.482  19.694  65.717  0.00  0.00    +0.090 C 
ATOM     37  C   UNL     1      -8.816  20.252  67.357  0.00  0.00    +0.090 C 
ENDBRANCH  34  35
ENDBRANCH  33  34
ENDBRANCH  31  33
ENDBRANCH   2  31
TORSDOF 9
ENDMDL
MODEL 4
REMARK VINA RESULT:      -7.2      2.381     10.186
REMARK  Name = 
REMARK  9 active torsions:
REMARK  status: ('A' for Active; 'I' for Inactive)
REMARK    1  A    between atoms: C_2  and  C_3
REMARK    2  A    between atoms: N_5  and  C_6
REMARK    3  A    between atoms: C_8  and  N_9
REMARK    4  A    between atoms: C_14  and  C_15
REMARK    5  A    between atoms: C_26  and  O_27
REMARK    6  A    between atoms: C_30  and  N_31
REMARK    7  A    between atoms: N_31  and  C_33
REMARK    8  A    between atoms: C_33  and  C_34
REMARK    9  A    between atoms: C_34  and  N_35
REMARK                            x       y       z     vdW  Elec       q    Type
REMARK                         _______ _______ _______ _____ _____    ______ ____
ROOT
ATOM      1  C   UNL     1      -5.567  18.227  66.532  0.00  0.00    +0.088 A 
ATOM      2  C   UNL     1      -6.107  18.918  65.461  0.00  0.00    +0.067 A 
ATOM      3  C   UNL     1      -7.290  19.608  65.690  0.00  0.00    +0.054 A 
ATOM      4  C   UNL     1      -8.163  19.123  66.652  0.00  0.00    +0.155 A 
ATOM      5  C   UNL     1      -7.624  18.415  67.718  0.00  0.00    +0.109 A 
ATOM      6  C   UNL     1      -6.476  17.686  67.431  0.00  0.00    +0.038 A 
ENDROOT
BRANCH   5   7
ATOM      7  N   UNL     1      -8.567  17.773  68.584  0.00  0.00    -0.175 NA
ATOM      8  C   UNL     1      -9.154  16.543  68.143  0.00  0.00    +0.241 A 
ATOM      9  N   UNL     1     -10.153  15.983  68.865  0.00  0.00    -0.212 NA
ATOM     10  C   UNL     1     -10.926  15.011  68.325  0.00  0.00    +0.087 A 
ATOM     11  C   UNL     1     -10.890  14.852  66.951  0.00  0.00    +0.040 A 
ATOM     12  C   UNL     1      -9.727  15.203  66.275  0.00  0.00    +0.103 A 
ATOM     13  N   UNL     1      -8.916  16.068  66.896  0.00  0.00    -0.211 NA
BRANCH  10  14
ATOM     14  C   UNL     1     -11.563  14.047  69.218  0.00  0.00    +0.036 A 
ATOM     15  C   UNL     1     -12.241  14.309  70.393  0.00  0.00    +0.019 A 
ATOM     16  C   UNL     1     -12.675  13.076  70.835  0.00  0.00    +0.060 A 
ATOM     17  C   UNL     1     -13.394  13.039  72.023  0.00  0.00    +0.017 A 
ATOM     18  C   UNL     1     -14.184  14.151  72.283  0.00  0.00    +0.001 A 
ATOM     19  C   UNL     1     -13.751  15.393  71.839  0.00  0.00    +0.000 A 
ATOM     20  N   UNL     1     -11.942  12.148  70.184  0.00  0.00    -0.324 N 
ATOM     21  C   UNL     1     -11.887  10.743  70.495  0.00  0.00    +0.130 C 
ATOM     22  C   UNL     1     -12.719  15.494  70.922  0.00  0.00    +0.002 A 
ATOM     23  C   UNL     1     -11.523  12.679  69.010  0.00  0.00    +0.077 A 
ENDBRANCH  10  14
ENDBRANCH   5   7
BRANCH   1  25
ATOM     24  C   UNL     1      -3.450  18.983  67.606  0.00  0.00    +0.269 C 
ATOM     25  N   UNL     1      -4.152  18.106  66.722  0.00  0.00    -0.174 NA
ATOM     26  O   UNL     1      -4.010  20.076  67.922  0.00  0.00    -0.268 OA
BRANCH  24  28
ATOM     27  C   UNL     1      -2.823  17.656  69.465  0.00  0.00    +0.005 C 
ATOM     28  C   UNL     1      -2.412  18.496  68.518  0.00  0.00    +0.060 C 
ENDBRANCH  24  28
ENDBRANCH   1  25
BRANCH   4  29
ATOM     29  O   UNL     1      -9.418  19.702  66.863  0.00  0.00    -0.470 OA
ATOM     30  C   UNL     1     -10.442  19.316  65.951  0.00  0.00    +0.253 C 
ENDBRANCH   4  29
BRANCH   2  31
ATOM     31  N   UNL     1      -5.201  19.473  64.501  0.00  0.00    -0.303 N 
ATOM     32  C   UNL     1      -4.536  18.575  63.560  0.00  0.00    +0.112 C 
BRANCH  31  33
ATOM     33  C   UNL     1      -5.514  20.801  64.007  0.00  0.00    +0.108 C 
BRANCH  33  34
ATOM     34  C   UNL     1      -4.779  21.136  62.737  0.00  0.00    +0.094 C 
BRANCH  34  35
ATOM     35  N   UNL     1      -5.765  21.450  61.729  0.00  0.00    -0.269 NA
ATOM     36  C   UNL     1      -7.011  21.922  62.279  0.00  0.00    +0.090 C 
ATOM     37  C   UNL     1      -5.938  20.387  60.773  0.00  0.00    +0.090 C 
ENDBRANCH  34  35
ENDBRANCH  33  34
ENDBRANCH  31  33
ENDBRANCH   2  31
TORSDOF 9
ENDMDL
MODEL 5
REMARK VINA RESULT:      -7.1      5.677     12.098
REMARK  Name = 
REMARK  9 active torsions:
REMARK  status: ('A' for Active; 'I' for Inactive)
REMARK    1  A    between atoms: C_2  and  C_3
REMARK    2  A    between atoms: N_5  and  C_6
REMARK    3  A    between atoms: C_8  and  N_9
REMARK    4  A    between atoms: C_14  and  C_15
REMARK    5  A    between atoms: C_26  and  O_27
REMARK    6  A    between atoms: C_30  and  N_31
REMARK    7  A    between atoms: N_31  and  C_33
REMARK    8  A    between atoms: C_33  and  C_34
REMARK    9  A    between atoms: C_34  and  N_35
REMARK                            x       y       z     vdW  Elec       q    Type
REMARK                         _______ _______ _______ _____ _____    ______ ____
ROOT
ATOM      1  C   UNL     1     -11.429  13.376  68.677  0.00  0.00    +0.088 A 
ATOM      2  C   UNL     1     -11.236  13.208  67.317  0.00  0.00    +0.067 A 
ATOM      3  C   UNL     1     -11.165  11.903  66.849  0.00  0.00    +0.054 A 
ATOM      4  C   UNL     1     -10.673  10.922  67.697  0.00  0.00    +0.155 A 
ATOM      5  C   UNL     1     -10.851  11.098  69.062  0.00  0.00    +0.109 A 
ATOM      6  C   UNL     1     -10.853  12.418  69.500  0.00  0.00    +0.038 A 
ENDROOT
BRANCH   5   7
ATOM      7  N   UNL     1     -10.169  10.165  69.909  0.00  0.00    -0.175 NA
ATOM      8  C   UNL     1     -10.961   9.225  70.644  0.00  0.00    +0.241 A 
ATOM      9  N   UNL     1     -10.366   8.425  71.562  0.00  0.00    -0.212 NA
ATOM     10  C   UNL     1     -11.113   7.762  72.476  0.00  0.00    +0.087 A 
ATOM     11  C   UNL     1     -12.420   8.175  72.660  0.00  0.00    +0.040 A 
ATOM     12  C   UNL     1     -13.083   8.764  71.590  0.00  0.00    +0.103 A 
ATOM     13  N   UNL     1     -12.314   9.296  70.633  0.00  0.00    -0.211 NA
BRANCH  10  14
ATOM     14  C   UNL     1     -10.587   6.522  73.041  0.00  0.00    +0.036 A 
ATOM     15  C   UNL     1     -10.396   5.316  72.394  0.00  0.00    +0.019 A 
ATOM     16  C   UNL     1      -9.852   4.481  73.349  0.00  0.00    +0.060 A 
ATOM     17  C   UNL     1      -9.560   3.178  72.968  0.00  0.00    +0.017 A 
ATOM     18  C   UNL     1      -9.171   3.011  71.645  0.00  0.00    +0.001 A 
ATOM     19  C   UNL     1      -9.715   3.849  70.682  0.00  0.00    +0.000 A 
ATOM     20  N   UNL     1     -10.107   5.045  74.549  0.00  0.00    -0.324 N 
ATOM     21  C   UNL     1      -9.933   4.416  75.833  0.00  0.00    +0.130 C 
ATOM     22  C   UNL     1     -10.397   4.997  71.048  0.00  0.00    +0.002 A 
ATOM     23  C   UNL     1     -10.242   6.382  74.375  0.00  0.00    +0.077 A 
ENDBRANCH  10  14
ENDBRANCH   5   7
BRANCH   1  25
ATOM     24  C   UNL     1     -12.689  14.428  70.552  0.00  0.00    +0.269 C 
ATOM     25  N   UNL     1     -12.207  14.457  69.206  0.00  0.00    -0.174 NA
ATOM     26  O   UNL     1     -12.741  13.304  71.136  0.00  0.00    -0.268 OA
BRANCH  24  28
ATOM     27  C   UNL     1     -11.908  15.493  72.518  0.00  0.00    +0.005 C 
ATOM     28  C   UNL     1     -12.645  15.610  71.417  0.00  0.00    +0.060 C 
ENDBRANCH  24  28
ENDBRANCH   1  25
BRANCH   4  29
ATOM     29  O   UNL     1     -10.473   9.609  67.261  0.00  0.00    -0.470 OA
ATOM     30  C   UNL     1     -10.039   9.460  65.912  0.00  0.00    +0.253 C 
ENDBRANCH   4  29
BRANCH   2  31
ATOM     31  N   UNL     1     -11.798  14.189  66.437  0.00  0.00    -0.303 N 
ATOM     32  C   UNL     1     -11.023  15.388  66.135  0.00  0.00    +0.112 C 
BRANCH  31  33
ATOM     33  C   UNL     1     -12.652  13.693  65.375  0.00  0.00    +0.108 C 
BRANCH  33  34
ATOM     34  C   UNL     1     -12.143  14.052  64.005  0.00  0.00    +0.094 C 
BRANCH  34  35
ATOM     35  N   UNL     1     -11.813  12.823  63.323  0.00  0.00    -0.269 NA
ATOM     36  C   UNL     1     -12.788  11.780  63.526  0.00  0.00    +0.090 C 
ATOM     37  C   UNL     1     -10.464  12.390  63.581  0.00  0.00    +0.090 C 
ENDBRANCH  34  35
ENDBRANCH  33  34
ENDBRANCH  31  33
ENDBRANCH   2  31
TORSDOF 9
ENDMDL
MODEL 6
REMARK VINA RESULT:      -7.0      5.499     11.070
REMARK  Name = 
REMARK  9 active torsions:
REMARK  status: ('A' for Active; 'I' for Inactive)
REMARK    1  A    between atoms: C_2  and  C_3
REMARK    2  A    between atoms: N_5  and  C_6
REMARK    3  A    between atoms: C_8  and  N_9
REMARK    4  A    between atoms: C_14  and  C_15
REMARK    5  A    between atoms: C_26  and  O_27
REMARK    6  A    between atoms: C_30  and  N_31
REMARK    7  A    between atoms: N_31  and  C_33
REMARK    8  A    between atoms: C_33  and  C_34
REMARK    9  A    between atoms: C_34  and  N_35
REMARK                            x       y       z     vdW  Elec       q    Type
REMARK                         _______ _______ _______ _____ _____    ______ ____
ROOT
ATOM      1  C   UNL     1     -11.084  11.352  66.770  0.00  0.00    +0.088 A 
ATOM      2  C   UNL     1     -11.692  12.589  66.897  0.00  0.00    +0.067 A 
ATOM      3  C   UNL     1     -11.710  13.153  68.167  0.00  0.00    +0.054 A 
ATOM      4  C   UNL     1     -11.727  12.308  69.265  0.00  0.00    +0.155 A 
ATOM      5  C   UNL     1     -11.133  11.060  69.133  0.00  0.00    +0.109 A 
ATOM      6  C   UNL     1     -11.193  10.501  67.862  0.00  0.00    +0.038 A 
ENDROOT
BRANCH   5   7
ATOM      7  N   UNL     1     -11.336  10.150  70.221  0.00  0.00    -0.175 NA
ATOM      8  C   UNL     1     -10.186   9.504  70.778  0.00  0.00    +0.241 A 
ATOM      9  N   UNL     1     -10.350   8.533  71.708  0.00  0.00    -0.212 NA
ATOM     10  C   UNL     1      -9.326   7.703  72.018  0.00  0.00    +0.087 A 
ATOM     11  C   UNL     1      -8.252   7.656  71.147  0.00  0.00    +0.040 A 
ATOM     12  C   UNL     1      -7.961   8.787  70.395  0.00  0.00    +0.103 A 
ATOM     13  N   UNL     1      -8.963   9.657  70.216  0.00  0.00    -0.211 NA
BRANCH  10  14
ATOM     14  C   UNL     1      -9.300   7.091  73.343  0.00  0.00    +0.036 A 
ATOM     15  C   UNL     1      -8.393   7.323  74.360  0.00  0.00    +0.019 A 
ATOM     16  C   UNL     1      -8.820   6.530  75.406  0.00  0.00    +0.060 A 
ATOM     17  C   UNL     1      -8.076   6.560  76.578  0.00  0.00    +0.017 A 
ATOM     18  C   UNL     1      -7.468   7.774  76.873  0.00  0.00    +0.001 A 
ATOM     19  C   UNL     1      -7.038   8.574  75.825  0.00  0.00    +0.000 A 
ATOM     20  N   UNL     1      -9.655   5.608  74.879  0.00  0.00    -0.324 N 
ATOM     21  C   UNL     1     -10.155   4.437  75.553  0.00  0.00    +0.130 C 
ATOM     22  C   UNL     1      -7.450   8.321  74.527  0.00  0.00    +0.002 A 
ATOM     23  C   UNL     1     -10.198   6.117  73.747  0.00  0.00    +0.077 A 
ENDBRANCH  10  14
ENDBRANCH   5   7
BRANCH   1  25
ATOM     24  C   UNL     1      -8.926  10.917  65.603  0.00  0.00    +0.269 C 
ATOM     25  N   UNL     1     -10.355  10.982  65.594  0.00  0.00    -0.174 NA
ATOM     26  O   UNL     1      -8.313  11.535  66.525  0.00  0.00    -0.268 OA
BRANCH  24  28
ATOM     27  C   UNL     1      -8.534   8.596  65.335  0.00  0.00    +0.005 C 
ATOM     28  C   UNL     1      -8.196   9.825  64.953  0.00  0.00    +0.060 C 
ENDBRANCH  24  28
ENDBRANCH   1  25
BRANCH   4  29
ATOM     29  O   UNL     1     -11.853  12.800  70.568  0.00  0.00    -0.470 OA
ATOM     30  C   UNL     1     -12.325  14.140  70.684  0.00  0.00    +0.253 C 
ENDBRANCH   4  29
BRANCH   2  31
ATOM     31  N   UNL     1     -11.619  13.486  65.784  0.00  0.00    -0.303 N 
ATOM     32  C   UNL     1     -12.861  13.989  65.204  0.00  0.00    +0.112 C 
BRANCH  31  33
ATOM     33  C   UNL     1     -10.485  14.391  65.753  0.00  0.00    +0.108 C 
BRANCH  33  34
ATOM     34  C   UNL     1     -10.817  15.716  65.123  0.00  0.00    +0.094 C 
BRANCH  34  35
ATOM     35  N   UNL     1      -9.794  16.657  65.515  0.00  0.00    -0.269 NA
ATOM     36  C   UNL     1      -8.688  16.041  66.203  0.00  0.00    +0.090 C 
ATOM     37  C   UNL     1     -10.329  17.797  66.214  0.00  0.00    +0.090 C 
ENDBRANCH  34  35
ENDBRANCH  33  34
ENDBRANCH  31  33
ENDBRANCH   2  31
TORSDOF 9
ENDMDL
MODEL 7
REMARK VINA RESULT:      -7.0      5.412     11.909
REMARK  Name = 
REMARK  9 active torsions:
REMARK  status: ('A' for Active; 'I' for Inactive)
REMARK    1  A    between atoms: C_2  and  C_3
REMARK    2  A    between atoms: N_5  and  C_6
REMARK    3  A    between atoms: C_8  and  N_9
REMARK    4  A    between atoms: C_14  and  C_15
REMARK    5  A    between atoms: C_26  and  O_27
REMARK    6  A    between atoms: C_30  and  N_31
REMARK    7  A    between atoms: N_31  and  C_33
REMARK    8  A    between atoms: C_33  and  C_34
REMARK    9  A    between atoms: C_34  and  N_35
REMARK                            x       y       z     vdW  Elec       q    Type
REMARK                         _______ _______ _______ _____ _____    ______ ____
ROOT
ATOM      1  C   UNL     1     -10.519  13.155  67.836  0.00  0.00    +0.088 A 
ATOM      2  C   UNL     1     -10.629  12.727  66.525  0.00  0.00    +0.067 A 
ATOM      3  C   UNL     1     -10.922  11.384  66.325  0.00  0.00    +0.054 A 
ATOM      4  C   UNL     1     -10.493  10.466  67.271  0.00  0.00    +0.155 A 
ATOM      5  C   UNL     1     -10.366  10.900  68.584  0.00  0.00    +0.109 A 
ATOM      6  C   UNL     1     -10.008  12.234  68.740  0.00  0.00    +0.038 A 
ENDROOT
BRANCH   5   7
ATOM      7  N   UNL     1      -9.744   9.981  69.490  0.00  0.00    -0.175 NA
ATOM      8  C   UNL     1     -10.593   9.199  70.339  0.00  0.00    +0.241 A 
ATOM      9  N   UNL     1     -10.042   8.428  71.307  0.00  0.00    -0.212 NA
ATOM     10  C   UNL     1     -10.810   7.932  72.306  0.00  0.00    +0.087 A 
ATOM     11  C   UNL     1     -12.059   8.496  72.495  0.00  0.00    +0.040 A 
ATOM     12  C   UNL     1     -12.707   9.051  71.398  0.00  0.00    +0.103 A 
ATOM     13  N   UNL     1     -11.931   9.411  70.369  0.00  0.00    -0.211 NA
BRANCH  10  14
ATOM     14  C   UNL     1     -10.388   6.701  72.967  0.00  0.00    +0.036 A 
ATOM     15  C   UNL     1     -10.299   5.437  72.415  0.00  0.00    +0.019 A 
ATOM     16  C   UNL     1      -9.824   4.636  73.434  0.00  0.00    +0.060 A 
ATOM     17  C   UNL     1      -9.641   3.288  73.157  0.00  0.00    +0.017 A 
ATOM     18  C   UNL     1      -9.271   2.987  71.852  0.00  0.00    +0.001 A 
ATOM     19  C   UNL     1      -9.746   3.790  70.824  0.00  0.00    +0.000 A 
ATOM     20  N   UNL     1     -10.029   5.310  74.586  0.00  0.00    -0.324 N 
ATOM     21  C   UNL     1      -9.904   4.770  75.915  0.00  0.00    +0.130 C 
ATOM     22  C   UNL     1     -10.330   5.016  71.098  0.00  0.00    +0.002 A 
ATOM     23  C   UNL     1     -10.053   6.636  74.309  0.00  0.00    +0.077 A 
ENDBRANCH  10  14
ENDBRANCH   5   7
BRANCH   1  25
ATOM     24  C   UNL     1     -11.697  14.652  69.442  0.00  0.00    +0.269 C 
ATOM     25  N   UNL     1     -10.938  14.463  68.245  0.00  0.00    -0.174 NA
ATOM     26  O   UNL     1     -12.300  13.646  69.923  0.00  0.00    -0.268 OA
BRANCH  24  28
ATOM     27  C   UNL     1     -12.239  15.847  71.414  0.00  0.00    +0.005 C 
ATOM     28  C   UNL     1     -11.420  15.751  70.370  0.00  0.00    +0.060 C 
ENDBRANCH  24  28
ENDBRANCH   1  25
BRANCH   4  29
ATOM     29  O   UNL     1     -10.658   9.090  67.086  0.00  0.00    -0.470 OA
ATOM     30  C   UNL     1      -9.727   8.465  66.206  0.00  0.00    +0.253 C 
ENDBRANCH   4  29
BRANCH   2  31
ATOM     31  N   UNL     1     -11.132  13.656  65.559  0.00  0.00    -0.303 N 
ATOM     32  C   UNL     1     -12.531  14.067  65.641  0.00  0.00    +0.112 C 
BRANCH  31  33
ATOM     33  C   UNL     1     -10.198  14.654  65.072  0.00  0.00    +0.108 C 
BRANCH  33  34
ATOM     34  C   UNL     1     -10.769  16.047  65.101  0.00  0.00    +0.094 C 
BRANCH  34  35
ATOM     35  N   UNL     1      -9.764  16.922  65.657  0.00  0.00    -0.269 NA
ATOM     36  C   UNL     1      -8.654  16.213  66.243  0.00  0.00    +0.090 C 
ATOM     37  C   UNL     1     -10.322  17.918  66.535  0.00  0.00    +0.090 C 
ENDBRANCH  34  35
ENDBRANCH  33  34
ENDBRANCH  31  33
ENDBRANCH   2  31
TORSDOF 9
ENDMDL
MODEL 8
REMARK VINA RESULT:      -6.8      5.328     11.634
REMARK  Name = 
REMARK  9 active torsions:
REMARK  status: ('A' for Active; 'I' for Inactive)
REMARK    1  A    between atoms: C_2  and  C_3
REMARK    2  A    between atoms: N_5  and  C_6
REMARK    3  A    between atoms: C_8  and  N_9
REMARK    4  A    between atoms: C_14  and  C_15
REMARK    5  A    between atoms: C_26  and  O_27
REMARK    6  A    between atoms: C_30  and  N_31
REMARK    7  A    between atoms: N_31  and  C_33
REMARK    8  A    between atoms: C_33  and  C_34
REMARK    9  A    between atoms: C_34  and  N_35
REMARK                            x       y       z     vdW  Elec       q    Type
REMARK                         _______ _______ _______ _____ _____    ______ ____
ROOT
ATOM      1  C   UNL     1     -10.780  13.169  67.755  0.00  0.00    +0.088 A 
ATOM      2  C   UNL     1     -10.772  12.726  66.444  0.00  0.00    +0.067 A 
ATOM      3  C   UNL     1     -10.967  11.366  66.240  0.00  0.00    +0.054 A 
ATOM      4  C   UNL     1     -10.550  10.483  67.224  0.00  0.00    +0.155 A 
ATOM      5  C   UNL     1     -10.541  10.933  68.537  0.00  0.00    +0.109 A 
ATOM      6  C   UNL     1     -10.279  12.288  68.703  0.00  0.00    +0.038 A 
ENDROOT
BRANCH   5   7
ATOM      7  N   UNL     1      -9.929  10.061  69.495  0.00  0.00    -0.175 NA
ATOM      8  C   UNL     1     -10.787   9.315  70.366  0.00  0.00    +0.241 A 
ATOM      9  N   UNL     1     -10.247   8.593  71.377  0.00  0.00    -0.212 NA
ATOM     10  C   UNL     1     -11.028   8.139  72.386  0.00  0.00    +0.087 A 
ATOM     11  C   UNL     1     -12.283   8.703  72.530  0.00  0.00    +0.040 A 
ATOM     12  C   UNL     1     -12.916   9.203  71.398  0.00  0.00    +0.103 A 
ATOM     13  N   UNL     1     -12.126   9.519  70.365  0.00  0.00    -0.211 NA
BRANCH  10  14
ATOM     14  C   UNL     1     -10.609   6.942  73.110  0.00  0.00    +0.036 A 
ATOM     15  C   UNL     1      -9.458   6.768  73.854  0.00  0.00    +0.019 A 
ATOM     16  C   UNL     1      -9.549   5.485  74.354  0.00  0.00    +0.060 A 
ATOM     17  C   UNL     1      -8.503   5.032  75.149  0.00  0.00    +0.017 A 
ATOM     18  C   UNL     1      -7.870   6.000  75.919  0.00  0.00    +0.001 A 
ATOM     19  C   UNL     1      -7.778   7.291  75.420  0.00  0.00    +0.000 A 
ATOM     20  N   UNL     1     -10.473   4.840  73.610  0.00  0.00    -0.324 N 
ATOM     21  C   UNL     1     -10.728   3.423  73.619  0.00  0.00    +0.130 C 
ATOM     22  C   UNL     1      -8.534   7.682  74.328  0.00  0.00    +0.002 A 
ATOM     23  C   UNL     1     -11.328   5.759  73.100  0.00  0.00    +0.077 A 
ENDBRANCH  10  14
ENDBRANCH   5   7
BRANCH   1  25
ATOM     24  C   UNL     1     -11.912  14.663  69.398  0.00  0.00    +0.269 C 
ATOM     25  N   UNL     1     -11.307  14.451  68.119  0.00  0.00    -0.174 NA
ATOM     26  O   UNL     1     -12.304  13.643  70.041  0.00  0.00    -0.268 OA
BRANCH  24  28
ATOM     27  C   UNL     1     -12.162  15.878  71.416  0.00  0.00    +0.005 C 
ATOM     28  C   UNL     1     -11.655  15.871  70.185  0.00  0.00    +0.060 C 
ENDBRANCH  24  28
ENDBRANCH   1  25
BRANCH   4  29
ATOM     29  O   UNL     1     -10.616   9.098  67.043  0.00  0.00    -0.470 OA
ATOM     30  C   UNL     1      -9.633   8.536  66.177  0.00  0.00    +0.253 C 
ENDBRANCH   4  29
BRANCH   2  31
ATOM     31  N   UNL     1     -11.262  13.615  65.435  0.00  0.00    -0.303 N 
ATOM     32  C   UNL     1     -12.669  14.009  65.468  0.00  0.00    +0.112 C 
BRANCH  31  33
ATOM     33  C   UNL     1     -10.330  14.610  64.938  0.00  0.00    +0.108 C 
BRANCH  33  34
ATOM     34  C   UNL     1     -10.856  16.014  65.067  0.00  0.00    +0.094 C 
BRANCH  34  35
ATOM     35  N   UNL     1      -9.776  16.845  65.545  0.00  0.00    -0.269 NA
ATOM     36  C   UNL     1      -8.742  16.102  66.220  0.00  0.00    +0.090 C 
ATOM     37  C   UNL     1     -10.242  17.978  66.303  0.00  0.00    +0.090 C 
ENDBRANCH  34  35
ENDBRANCH  33  34
ENDBRANCH  31  33
ENDBRANCH   2  31
TORSDOF 9
ENDMDL
MODEL 9
REMARK VINA RESULT:      -6.8      5.785     11.842
REMARK  Name = 
REMARK  9 active torsions:
REMARK  status: ('A' for Active; 'I' for Inactive)
REMARK    1  A    between atoms: C_2  and  C_3
REMARK    2  A    between atoms: N_5  and  C_6
REMARK    3  A    between atoms: C_8  and  N_9
REMARK    4  A    between atoms: C_14  and  C_15
REMARK    5  A    between atoms: C_26  and  O_27
REMARK    6  A    between atoms: C_30  and  N_31
REMARK    7  A    between atoms: N_31  and  C_33
REMARK    8  A    between atoms: C_33  and  C_34
REMARK    9  A    between atoms: C_34  and  N_35
REMARK                            x       y       z     vdW  Elec       q    Type
REMARK                         _______ _______ _______ _____ _____    ______ ____
ROOT
ATOM      1  C   UNL     1     -11.051  11.391  67.001  0.00  0.00    +0.088 A 
ATOM      2  C   UNL     1     -11.712  12.588  67.208  0.00  0.00    +0.067 A 
ATOM      3  C   UNL     1     -11.829  13.023  68.523  0.00  0.00    +0.054 A 
ATOM      4  C   UNL     1     -11.882  12.072  69.531  0.00  0.00    +0.155 A 
ATOM      5  C   UNL     1     -11.233  10.863  69.316  0.00  0.00    +0.109 A 
ATOM      6  C   UNL     1     -11.194  10.433  67.995  0.00  0.00    +0.038 A 
ENDROOT
BRANCH   5   7
ATOM      7  N   UNL     1     -11.468   9.844  70.295  0.00  0.00    -0.175 NA
ATOM      8  C   UNL     1     -10.338   9.114  70.787  0.00  0.00    +0.241 A 
ATOM      9  N   UNL     1     -10.534   8.050  71.601  0.00  0.00    -0.212 NA
ATOM     10  C   UNL     1      -9.531   7.168  71.826  0.00  0.00    +0.087 A 
ATOM     11  C   UNL     1      -8.450   7.192  70.964  0.00  0.00    +0.040 A 
ATOM     12  C   UNL     1      -8.125   8.393  70.344  0.00  0.00    +0.103 A 
ATOM     13  N   UNL     1      -9.106   9.300  70.254  0.00  0.00    -0.211 NA
BRANCH  10  14
ATOM     14  C   UNL     1      -9.532   6.412  73.076  0.00  0.00    +0.036 A 
ATOM     15  C   UNL     1     -10.060   5.154  73.298  0.00  0.00    +0.019 A 
ATOM     16  C   UNL     1      -9.777   4.879  74.621  0.00  0.00    +0.060 A 
ATOM     17  C   UNL     1     -10.205   3.659  75.127  0.00  0.00    +0.017 A 
ATOM     18  C   UNL     1     -10.223   2.605  74.221  0.00  0.00    +0.001 A 
ATOM     19  C   UNL     1     -10.506   2.878  72.890  0.00  0.00    +0.000 A 
ATOM     20  N   UNL     1      -9.486   6.059  75.211  0.00  0.00    -0.324 N 
ATOM     21  C   UNL     1      -9.358   6.287  76.627  0.00  0.00    +0.130 C 
ATOM     22  C   UNL     1     -10.488   4.179  72.416  0.00  0.00    +0.002 A 
ATOM     23  C   UNL     1      -9.022   6.909  74.263  0.00  0.00    +0.077 A 
ENDBRANCH  10  14
ENDBRANCH   5   7
BRANCH   1  25
ATOM     24  C   UNL     1      -8.811  11.250  65.917  0.00  0.00    +0.269 C 
ATOM     25  N   UNL     1     -10.237  11.163  65.844  0.00  0.00    -0.174 NA
ATOM     26  O   UNL     1      -8.308  11.881  66.895  0.00  0.00    -0.268 OA
BRANCH  24  28
ATOM     27  C   UNL     1      -8.037   9.025  65.683  0.00  0.00    +0.005 C 
ATOM     28  C   UNL     1      -7.940  10.279  65.251  0.00  0.00    +0.060 C 
ENDBRANCH  24  28
ENDBRANCH   1  25
BRANCH   4  29
ATOM     29  O   UNL     1     -12.105  12.429  70.864  0.00  0.00    -0.470 OA
ATOM     30  C   UNL     1     -12.658  13.725  71.077  0.00  0.00    +0.253 C 
ENDBRANCH   4  29
BRANCH   2  31
ATOM     31  N   UNL     1     -11.605  13.594  66.195  0.00  0.00    -0.303 N 
ATOM     32  C   UNL     1     -12.780  13.903  65.384  0.00  0.00    +0.112 C 
BRANCH  31  33
ATOM     33  C   UNL     1     -10.708  14.700  66.471  0.00  0.00    +0.108 C 
BRANCH  33  34
ATOM     34  C   UNL     1     -10.593  15.657  65.315  0.00  0.00    +0.094 C 
BRANCH  34  35
ATOM     35  N   UNL     1      -9.626  16.667  65.675  0.00  0.00    -0.269 NA
ATOM     36  C   UNL     1      -8.456  16.129  66.323  0.00  0.00    +0.090 C 
ATOM     37  C   UNL     1     -10.215  17.766  66.396  0.00  0.00    +0.090 C 
ENDBRANCH  34  35
ENDBRANCH  33  34
ENDBRANCH  31  33
ENDBRANCH   2  31
TORSDOF 9
ENDMDL
