MODEL 1
REMARK VINA RESULT:      -6.7      0.000      0.000
REMARK  Name = 
REMARK  8 active torsions:
REMARK  status: ('A' for Active; 'I' for Inactive)
REMARK    1  A    between atoms: C_2  and  C_4
REMARK    2  A    between atoms: C_4  and  O_5
REMARK    3  A    between atoms: O_5  and  C_6
REMARK    4  A    between atoms: C_6  and  C_7
REMARK    5  A    between atoms: C_7  and  N_8
REMARK    6  A    between atoms: N_11  and  C_12
REMARK    7  A    between atoms: C_12  and  C_13
REMARK    8  A    between atoms: C_12  and  C_19
REMARK                            x       y       z     vdW  Elec       q    Type
REMARK                         _______ _______ _______ _____ _____    ______ ____
ROOT
ATOM      1  C   UNL     1     -10.098  14.067  68.695  0.00  0.00    +0.103 C 
ENDROOT
BRANCH   1   2
ATOM      2  C   UNL     1     -11.479  14.745  69.301  0.00  0.00    -0.004 A 
ATOM      3  C   UNL     1     -11.103  15.868  70.033  0.00  0.00    -0.002 A 
ATOM      4  C   UNL     1     -11.640  16.153  71.283  0.00  0.00    +0.011 A 
ATOM      5  C   UNL     1     -12.582  15.297  71.840  0.00  0.00    +0.058 A 
ATOM      6 CL   UNL     1     -12.895  15.255  73.574  0.00  0.00    -0.082 Cl
ATOM      7  C   UNL     1     -13.102  14.336  70.980  0.00  0.00    +0.011 A 
ATOM      8  C   UNL     1     -12.228  13.831  70.026  0.00  0.00    -0.002 A 
ENDBRANCH   1   2
BRANCH   1   9
ATOM      9  C   UNL     1     -10.796  13.658  67.261  0.00  0.00    -0.004 A 
ATOM     10  C   UNL     1     -11.868  14.389  66.885  0.00  0.00    -0.003 A 
ATOM     11  C   UNL     1     -12.468  13.998  65.694  0.00  0.00    -0.000 A 
ATOM     12  C   UNL     1     -12.326  12.695  65.261  0.00  0.00    -0.000 A 
ATOM     13  C   UNL     1     -11.490  11.823  65.946  0.00  0.00    -0.000 A 
ATOM     14  C   UNL     1     -10.696  12.315  66.976  0.00  0.00    -0.003 A 
ENDBRANCH   1   9
BRANCH   1  18
ATOM     15  N   UNL     1      -6.906  16.300  67.419  0.00  0.00    -0.268 NA
ATOM     16  C   UNL     1      -7.359  14.919  67.268  0.00  0.00    +0.090 C 
ATOM     17  C   UNL     1      -8.850  15.013  66.959  0.00  0.00    +0.090 C 
ATOM     18  N   UNL     1      -9.595  15.487  68.124  0.00  0.00    -0.264 NA
ATOM     19  C   UNL     1      -8.621  15.875  69.134  0.00  0.00    +0.090 C 
ATOM     20  C   UNL     1      -7.614  16.826  68.570  0.00  0.00    +0.090 C 
BRANCH  15  21
ATOM     21  C   UNL     1      -7.262  17.109  66.279  0.00  0.00    +0.105 C 
BRANCH  21  22
ATOM     22  C   UNL     1      -7.322  18.578  66.594  0.00  0.00    +0.160 C 
BRANCH  22  23
ATOM     23  O   UNL     1      -8.268  19.257  65.833  0.00  0.00    -0.341 OA
BRANCH  23  24
ATOM     24  C   UNL     1      -9.325  19.740  66.583  0.00  0.00    +0.257 C 
BRANCH  24  26
ATOM     25  O   UNL     1     -10.994  18.615  67.540  0.00  0.00    -0.243 OA
ATOM     26  C   UNL     1     -10.381  18.712  66.669  0.00  0.00    +0.394 C 
ATOM     27  O   UNL     1     -10.650  17.944  65.532  0.00  0.00    -0.243 OA
ENDBRANCH  24  26
ENDBRANCH  23  24
ENDBRANCH  22  23
ENDBRANCH  21  22
ENDBRANCH  15  21
ENDBRANCH   1  18
TORSDOF 8
ENDMDL
MODEL 2
REMARK VINA RESULT:      -6.1      1.379      1.808
REMARK  Name = 
REMARK  8 active torsions:
REMARK  status: ('A' for Active; 'I' for Inactive)
REMARK    1  A    between atoms: C_2  and  C_4
REMARK    2  A    between atoms: C_4  and  O_5
REMARK    3  A    between atoms: O_5  and  C_6
REMARK    4  A    between atoms: C_6  and  C_7
REMARK    5  A    between atoms: C_7  and  N_8
REMARK    6  A    between atoms: N_11  and  C_12
REMARK    7  A    between atoms: C_12  and  C_13
REMARK    8  A    between atoms: C_12  and  C_19
REMARK                            x       y       z     vdW  Elec       q    Type
REMARK                         _______ _______ _______ _____ _____    ______ ____
ROOT
ATOM      1  C   UNL     1     -10.190  13.863  68.605  0.00  0.00    +0.103 C 
ENDROOT
BRANCH   1   2
ATOM      2  C   UNL     1     -11.592  14.373  69.318  0.00  0.00    -0.004 A 
ATOM      3  C   UNL     1     -11.331  15.608  69.908  0.00  0.00    -0.002 A 
ATOM      4  C   UNL     1     -11.772  15.927  71.187  0.00  0.00    +0.011 A 
ATOM      5  C   UNL     1     -12.493  14.993  71.920  0.00  0.00    +0.058 A 
ATOM      6 CL   UNL     1     -12.607  15.072  73.677  0.00  0.00    -0.082 Cl
ATOM      7  C   UNL     1     -12.934  13.882  71.209  0.00  0.00    +0.011 A 
ATOM      8  C   UNL     1     -12.096  13.429  70.199  0.00  0.00    -0.002 A 
ENDBRANCH   1   2
BRANCH   1   9
ATOM      9  C   UNL     1     -10.911  13.548  67.159  0.00  0.00    -0.004 A 
ATOM     10  C   UNL     1     -12.050  14.223  66.896  0.00  0.00    -0.003 A 
ATOM     11  C   UNL     1     -12.665  13.909  65.689  0.00  0.00    -0.000 A 
ATOM     12  C   UNL     1     -12.440  12.673  65.117  0.00  0.00    -0.000 A 
ATOM     13  C   UNL     1     -11.511  11.807  65.680  0.00  0.00    -0.000 A 
ATOM     14  C   UNL     1     -10.718  12.253  66.731  0.00  0.00    -0.003 A 
ENDBRANCH   1   9
BRANCH   1  18
ATOM     15  N   UNL     1      -7.246  16.406  67.312  0.00  0.00    -0.268 NA
ATOM     16  C   UNL     1      -7.650  15.029  67.038  0.00  0.00    +0.090 C 
ATOM     17  C   UNL     1      -9.167  15.075  66.886  0.00  0.00    +0.090 C 
ATOM     18  N   UNL     1      -9.810  15.366  68.166  0.00  0.00    -0.264 NA
ATOM     19  C   UNL     1      -8.757  15.687  69.118  0.00  0.00    +0.090 C 
ATOM     20  C   UNL     1      -7.855  16.753  68.582  0.00  0.00    +0.090 C 
BRANCH  15  21
ATOM     21  C   UNL     1      -7.750  17.321  66.319  0.00  0.00    +0.105 C 
BRANCH  21  22
ATOM     22  C   UNL     1      -6.679  18.187  65.716  0.00  0.00    +0.160 C 
BRANCH  22  23
ATOM     23  O   UNL     1      -7.127  19.466  65.404  0.00  0.00    -0.341 OA
BRANCH  23  24
ATOM     24  C   UNL     1      -7.783  20.084  66.453  0.00  0.00    +0.257 C 
BRANCH  24  26
ATOM     25  O   UNL     1      -6.322  21.684  66.974  0.00  0.00    -0.243 OA
ATOM     26  C   UNL     1      -6.803  20.788  67.304  0.00  0.00    +0.394 C 
ATOM     27  O   UNL     1      -6.607  20.326  68.609  0.00  0.00    -0.243 OA
ENDBRANCH  24  26
ENDBRANCH  23  24
ENDBRANCH  22  23
ENDBRANCH  21  22
ENDBRANCH  15  21
ENDBRANCH   1  18
TORSDOF 8
ENDMDL
MODEL 3
REMARK VINA RESULT:      -6.0      2.978      6.034
REMARK  Name = 
REMARK  8 active torsions:
REMARK  status: ('A' for Active; 'I' for Inactive)
REMARK    1  A    between atoms: C_2  and  C_4
REMARK    2  A    between atoms: C_4  and  O_5
REMARK    3  A    between atoms: O_5  and  C_6
REMARK    4  A    between atoms: C_6  and  C_7
REMARK    5  A    between atoms: C_7  and  N_8
REMARK    6  A    between atoms: N_11  and  C_12
REMARK    7  A    between atoms: C_12  and  C_13
REMARK    8  A    between atoms: C_12  and  C_19
REMARK                            x       y       z     vdW  Elec       q    Type
REMARK                         _______ _______ _______ _____ _____    ______ ____
ROOT
ATOM      1  C   UNL     1      -9.009  16.739  68.949  0.00  0.00    +0.103 C 
ENDROOT
BRANCH   1   2
ATOM      2  C   UNL     1      -7.492  16.392  68.390  0.00  0.00    -0.004 A 
ATOM      3  C   UNL     1      -6.584  16.872  69.331  0.00  0.00    -0.002 A 
ATOM      4  C   UNL     1      -5.441  17.575  68.969  0.00  0.00    +0.011 A 
ATOM      5  C   UNL     1      -5.181  17.822  67.626  0.00  0.00    +0.058 A 
ATOM      6 CL   UNL     1      -4.116  19.127  67.108  0.00  0.00    -0.082 Cl
ATOM      7  C   UNL     1      -5.974  17.124  66.723  0.00  0.00    +0.011 A 
ATOM      8  C   UNL     1      -7.286  16.889  67.112  0.00  0.00    -0.002 A 
ENDBRANCH   1   2
BRANCH   1   9
ATOM      9  C   UNL     1      -9.231  17.988  67.899  0.00  0.00    -0.004 A 
ATOM     10  C   UNL     1      -9.220  19.229  68.432  0.00  0.00    -0.003 A 
ATOM     11  C   UNL     1      -9.452  20.265  67.535  0.00  0.00    -0.000 A 
ATOM     12  C   UNL     1     -10.158  20.010  66.376  0.00  0.00    -0.000 A 
ATOM     13  C   UNL     1     -10.519  18.707  66.056  0.00  0.00    -0.000 A 
ATOM     14  C   UNL     1     -10.041  17.661  66.835  0.00  0.00    -0.003 A 
ENDBRANCH   1   9
BRANCH   1  18
ATOM     15  N   UNL     1     -11.063  13.213  68.558  0.00  0.00    -0.268 NA
ATOM     16  C   UNL     1     -11.104  14.367  69.452  0.00  0.00    +0.090 C 
ATOM     17  C   UNL     1     -11.004  15.588  68.543  0.00  0.00    +0.090 C 
ATOM     18  N   UNL     1      -9.677  15.679  67.937  0.00  0.00    -0.264 NA
ATOM     19  C   UNL     1      -8.958  14.460  68.280  0.00  0.00    +0.090 C 
ATOM     20  C   UNL     1      -9.759  13.247  67.925  0.00  0.00    +0.090 C 
BRANCH  15  21
ATOM     21  C   UNL     1     -12.057  13.305  67.518  0.00  0.00    +0.105 C 
BRANCH  21  22
ATOM     22  C   UNL     1     -11.753  12.432  66.331  0.00  0.00    +0.160 C 
BRANCH  22  23
ATOM     23  O   UNL     1     -12.096  13.024  65.121  0.00  0.00    -0.341 OA
BRANCH  23  24
ATOM     24  C   UNL     1     -12.428  14.361  65.243  0.00  0.00    +0.257 C 
BRANCH  24  26
ATOM     25  O   UNL     1     -10.336  14.906  64.703  0.00  0.00    -0.243 OA
ATOM     26  C   UNL     1     -11.364  15.191  64.644  0.00  0.00    +0.394 C 
ATOM     27  O   UNL     1     -11.742  16.301  63.881  0.00  0.00    -0.243 OA
ENDBRANCH  24  26
ENDBRANCH  23  24
ENDBRANCH  22  23
ENDBRANCH  21  22
ENDBRANCH  15  21
ENDBRANCH   1  18
TORSDOF 8
ENDMDL
MODEL 4
REMARK VINA RESULT:      -6.0      2.237      4.428
REMARK  Name = 
REMARK  8 active torsions:
REMARK  status: ('A' for Active; 'I' for Inactive)
REMARK    1  A    between atoms: C_2  and  C_4
REMARK    2  A    between atoms: C_4  and  O_5
REMARK    3  A    between atoms: O_5  and  C_6
REMARK    4  A    between atoms: C_6  and  C_7
REMARK    5  A    between atoms: C_7  and  N_8
REMARK    6  A    between atoms: N_11  and  C_12
REMARK    7  A    between atoms: C_12  and  C_13
REMARK    8  A    between atoms: C_12  and  C_19
REMARK                            x       y       z     vdW  Elec       q    Type
REMARK                         _______ _______ _______ _____ _____    ______ ____
ROOT
ATOM      1  C   UNL     1     -12.397  13.958  69.706  0.00  0.00    +0.103 C 
ENDROOT
BRANCH   1   2
ATOM      2  C   UNL     1     -12.037  12.632  70.627  0.00  0.00    -0.004 A 
ATOM      3  C   UNL     1     -11.742  11.589  69.753  0.00  0.00    -0.002 A 
ATOM      4  C   UNL     1     -12.240  10.304  69.937  0.00  0.00    +0.011 A 
ATOM      5  C   UNL     1     -13.066  10.034  71.021  0.00  0.00    +0.058 A 
ATOM      6 CL   UNL     1     -14.160   8.652  71.038  0.00  0.00    -0.082 Cl
ATOM      7  C   UNL     1     -13.133  11.031  71.988  0.00  0.00    +0.011 A 
ATOM      8  C   UNL     1     -13.049  12.338  71.527  0.00  0.00    -0.002 A 
ENDBRANCH   1   2
BRANCH   1   9
ATOM      9  C   UNL     1     -12.632  14.937  71.009  0.00  0.00    -0.004 A 
ATOM     10  C   UNL     1     -11.713  14.854  71.995  0.00  0.00    -0.003 A 
ATOM     11  C   UNL     1     -11.954  15.657  73.104  0.00  0.00    -0.000 A 
ATOM     12  C   UNL     1     -13.248  16.047  73.388  0.00  0.00    -0.000 A 
ATOM     13  C   UNL     1     -14.274  15.743  72.502  0.00  0.00    -0.000 A 
ATOM     14  C   UNL     1     -13.962  15.173  71.273  0.00  0.00    -0.003 A 
ENDBRANCH   1   9
BRANCH   1  18
ATOM     15  N   UNL     1      -9.535  15.984  67.582  0.00  0.00    -0.268 NA
ATOM     16  C   UNL     1     -10.920  16.220  67.984  0.00  0.00    +0.090 C 
ATOM     17  C   UNL     1     -10.992  15.810  69.451  0.00  0.00    +0.090 C 
ATOM     18  N   UNL     1     -10.841  14.363  69.595  0.00  0.00    -0.264 NA
ATOM     19  C   UNL     1     -10.497  13.829  68.285  0.00  0.00    +0.090 C 
ATOM     20  C   UNL     1      -9.326  14.554  67.702  0.00  0.00    +0.090 C 
BRANCH  15  21
ATOM     21  C   UNL     1      -8.602  16.639  68.464  0.00  0.00    +0.105 C 
BRANCH  21  22
ATOM     22  C   UNL     1      -8.177  17.995  67.972  0.00  0.00    +0.160 C 
BRANCH  22  23
ATOM     23  O   UNL     1      -8.373  18.162  66.605  0.00  0.00    -0.341 OA
BRANCH  23  24
ATOM     24  C   UNL     1      -8.922  19.390  66.281  0.00  0.00    +0.257 C 
BRANCH  24  26
ATOM     25  O   UNL     1     -10.848  18.832  65.308  0.00  0.00    -0.243 OA
ATOM     26  C   UNL     1     -10.389  19.262  66.173  0.00  0.00    +0.394 C 
ATOM     27  O   UNL     1     -11.166  19.602  67.285  0.00  0.00    -0.243 OA
ENDBRANCH  24  26
ENDBRANCH  23  24
ENDBRANCH  22  23
ENDBRANCH  21  22
ENDBRANCH  15  21
ENDBRANCH   1  18
TORSDOF 8
ENDMDL
MODEL 5
REMARK VINA RESULT:      -6.0      3.538      5.330
REMARK  Name = 
REMARK  8 active torsions:
REMARK  status: ('A' for Active; 'I' for Inactive)
REMARK    1  A    between atoms: C_2  and  C_4
REMARK    2  A    between atoms: C_4  and  O_5
REMARK    3  A    between atoms: O_5  and  C_6
REMARK    4  A    between atoms: C_6  and  C_7
REMARK    5  A    between atoms: C_7  and  N_8
REMARK    6  A    between atoms: N_11  and  C_12
REMARK    7  A    between atoms: C_12  and  C_13
REMARK    8  A    between atoms: C_12  and  C_19
REMARK                            x       y       z     vdW  Elec       q    Type
REMARK                         _______ _______ _______ _____ _____    ______ ____
ROOT
ATOM      1  C   UNL     1     -10.634  16.329  67.143  0.00  0.00    +0.103 C 
ENDROOT
BRANCH   1   2
ATOM      2  C   UNL     1      -9.645  15.164  66.513  0.00  0.00    -0.004 A 
ATOM      3  C   UNL     1     -10.245  14.697  65.346  0.00  0.00    -0.002 A 
ATOM      4  C   UNL     1     -10.323  13.343  65.041  0.00  0.00    +0.011 A 
ATOM      5  C   UNL     1      -9.794  12.408  65.921  0.00  0.00    +0.058 A 
ATOM      6 CL   UNL     1     -10.312  10.723  65.915  0.00  0.00    -0.082 Cl
ATOM      7  C   UNL     1      -8.998  12.923  66.939  0.00  0.00    +0.011 A 
ATOM      8  C   UNL     1      -9.368  14.167  67.435  0.00  0.00    -0.002 A 
ENDBRANCH   1   2
BRANCH   1   9
ATOM      9  C   UNL     1     -10.972  15.464  68.502  0.00  0.00    -0.004 A 
ATOM     10  C   UNL     1     -11.995  14.587  68.417  0.00  0.00    -0.003 A 
ATOM     11  C   UNL     1     -12.290  13.899  69.588  0.00  0.00    -0.000 A 
ATOM     12  C   UNL     1     -11.951  14.457  70.804  0.00  0.00    -0.000 A 
ATOM     13  C   UNL     1     -11.211  15.632  70.845  0.00  0.00    -0.000 A 
ATOM     14  C   UNL     1     -10.701  16.154  69.662  0.00  0.00    -0.003 A 
ENDBRANCH   1   9
BRANCH   1  18
ATOM     15  N   UNL     1      -7.963  19.433  66.954  0.00  0.00    -0.268 NA
ATOM     16  C   UNL     1      -9.386  19.244  66.682  0.00  0.00    +0.090 C 
ATOM     17  C   UNL     1      -9.920  18.437  67.861  0.00  0.00    +0.090 C 
ATOM     18  N   UNL     1      -9.390  17.075  67.843  0.00  0.00    -0.264 NA
ATOM     19  C   UNL     1      -8.387  17.013  66.790  0.00  0.00    +0.090 C 
ATOM     20  C   UNL     1      -7.378  18.107  66.946  0.00  0.00    +0.090 C 
BRANCH  15  21
ATOM     21  C   UNL     1      -7.738  20.003  68.259  0.00  0.00    +0.105 C 
BRANCH  21  22
ATOM     22  C   UNL     1      -6.444  19.557  68.883  0.00  0.00    +0.160 C 
BRANCH  22  23
ATOM     23  O   UNL     1      -5.881  20.521  69.712  0.00  0.00    -0.341 OA
BRANCH  23  24
ATOM     24  C   UNL     1      -5.616  20.054  70.987  0.00  0.00    +0.257 C 
BRANCH  24  26
ATOM     25  O   UNL     1      -4.421  21.886  71.413  0.00  0.00    -0.243 OA
ATOM     26  C   UNL     1      -4.511  20.834  71.580  0.00  0.00    +0.394 C 
ATOM     27  O   UNL     1      -3.650  20.188  72.472  0.00  0.00    -0.243 OA
ENDBRANCH  24  26
ENDBRANCH  23  24
ENDBRANCH  22  23
ENDBRANCH  21  22
ENDBRANCH  15  21
ENDBRANCH   1  18
TORSDOF 8
ENDMDL
MODEL 6
REMARK VINA RESULT:      -5.9      3.067      4.965
REMARK  Name = 
REMARK  8 active torsions:
REMARK  status: ('A' for Active; 'I' for Inactive)
REMARK    1  A    between atoms: C_2  and  C_4
REMARK    2  A    between atoms: C_4  and  O_5
REMARK    3  A    between atoms: O_5  and  C_6
REMARK    4  A    between atoms: C_6  and  C_7
REMARK    5  A    between atoms: C_7  and  N_8
REMARK    6  A    between atoms: N_11  and  C_12
REMARK    7  A    between atoms: C_12  and  C_13
REMARK    8  A    between atoms: C_12  and  C_19
REMARK                            x       y       z     vdW  Elec       q    Type
REMARK                         _______ _______ _______ _____ _____    ______ ____
ROOT
ATOM      1  C   UNL     1     -10.799  15.796  66.958  0.00  0.00    +0.103 C 
ENDROOT
BRANCH   1   2
ATOM      2  C   UNL     1      -9.630  14.685  66.591  0.00  0.00    -0.004 A 
ATOM      3  C   UNL     1     -10.165  13.822  65.637  0.00  0.00    -0.002 A 
ATOM      4  C   UNL     1     -10.003  12.443  65.711  0.00  0.00    +0.011 A 
ATOM      5  C   UNL     1      -9.292  11.888  66.768  0.00  0.00    +0.058 A 
ATOM      6 CL   UNL     1      -9.497  10.205  67.248  0.00  0.00    -0.082 Cl
ATOM      7  C   UNL     1      -8.579  12.790  67.550  0.00  0.00    +0.011 A 
ATOM      8  C   UNL     1      -9.156  14.041  67.722  0.00  0.00    -0.002 A 
ENDBRANCH   1   2
BRANCH   1   9
ATOM      9  C   UNL     1     -11.050  15.196  68.470  0.00  0.00    -0.004 A 
ATOM     10  C   UNL     1     -11.966  14.210  68.580  0.00  0.00    -0.003 A 
ATOM     11  C   UNL     1     -12.193  13.749  69.872  0.00  0.00    -0.000 A 
ATOM     12  C   UNL     1     -11.932  14.581  70.943  0.00  0.00    -0.000 A 
ATOM     13  C   UNL     1     -11.331  15.815  70.731  0.00  0.00    -0.000 A 
ATOM     14  C   UNL     1     -10.872  16.137  69.460  0.00  0.00    -0.003 A 
ENDBRANCH   1   9
BRANCH   1  18
ATOM     15  N   UNL     1      -8.824  19.317  66.244  0.00  0.00    -0.268 NA
ATOM     16  C   UNL     1     -10.191  18.821  66.095  0.00  0.00    +0.090 C 
ATOM     17  C   UNL     1     -10.494  18.074  67.390  0.00  0.00    +0.090 C 
ATOM     18  N   UNL     1      -9.700  16.850  67.483  0.00  0.00    -0.264 NA
ATOM     19  C   UNL     1      -8.756  16.859  66.374  0.00  0.00    +0.090 C 
ATOM     20  C   UNL     1      -7.983  18.139  66.339  0.00  0.00    +0.090 C 
BRANCH  15  21
ATOM     21  C   UNL     1      -8.658  20.073  67.460  0.00  0.00    +0.105 C 
BRANCH  21  22
ATOM     22  C   UNL     1      -7.263  19.996  68.016  0.00  0.00    +0.160 C 
BRANCH  22  23
ATOM     23  O   UNL     1      -7.233  19.621  69.355  0.00  0.00    -0.341 OA
BRANCH  23  24
ATOM     24  C   UNL     1      -5.997  19.151  69.761  0.00  0.00    +0.257 C 
BRANCH  24  26
ATOM     25  O   UNL     1      -5.984  20.701  71.362  0.00  0.00    -0.243 OA
ATOM     26  C   UNL     1      -5.659  19.723  71.080  0.00  0.00    +0.394 C 
ATOM     27  O   UNL     1      -5.008  18.904  72.008  0.00  0.00    -0.243 OA
ENDBRANCH  24  26
ENDBRANCH  23  24
ENDBRANCH  22  23
ENDBRANCH  21  22
ENDBRANCH  15  21
ENDBRANCH   1  18
TORSDOF 8
ENDMDL
MODEL 7
REMARK VINA RESULT:      -5.9      2.969      5.519
REMARK  Name = 
REMARK  8 active torsions:
REMARK  status: ('A' for Active; 'I' for Inactive)
REMARK    1  A    between atoms: C_2  and  C_4
REMARK    2  A    between atoms: C_4  and  O_5
REMARK    3  A    between atoms: O_5  and  C_6
REMARK    4  A    between atoms: C_6  and  C_7
REMARK    5  A    between atoms: C_7  and  N_8
REMARK    6  A    between atoms: N_11  and  C_12
REMARK    7  A    between atoms: C_12  and  C_13
REMARK    8  A    between atoms: C_12  and  C_19
REMARK                            x       y       z     vdW  Elec       q    Type
REMARK                         _______ _______ _______ _____ _____    ______ ____
ROOT
ATOM      1  C   UNL     1     -11.170  15.790  67.771  0.00  0.00    +0.103 C 
ENDROOT
BRANCH   1   2
ATOM      2  C   UNL     1     -10.889  15.122  69.257  0.00  0.00    -0.004 A 
ATOM      3  C   UNL     1     -11.470  13.856  69.259  0.00  0.00    -0.002 A 
ATOM      4  C   UNL     1     -12.223  13.386  70.329  0.00  0.00    +0.011 A 
ATOM      5  C   UNL     1     -12.418  14.195  71.441  0.00  0.00    +0.058 A 
ATOM      6 CL   UNL     1     -13.758  13.938  72.558  0.00  0.00    -0.082 Cl
ATOM      7  C   UNL     1     -11.628  15.337  71.499  0.00  0.00    +0.011 A 
ATOM      8  C   UNL     1     -11.333  15.941  70.283  0.00  0.00    -0.002 A 
ENDBRANCH   1   2
BRANCH   1   9
ATOM      9  C   UNL     1      -9.603  16.245  67.556  0.00  0.00    -0.004 A 
ATOM     10  C   UNL     1      -8.669  15.490  68.175  0.00  0.00    -0.003 A 
ATOM     11  C   UNL     1      -7.356  15.918  68.016  0.00  0.00    -0.000 A 
ATOM     12  C   UNL     1      -7.106  17.247  67.739  0.00  0.00    -0.000 A 
ATOM     13  C   UNL     1      -8.164  18.116  67.499  0.00  0.00    -0.000 A 
ATOM     14  C   UNL     1      -9.452  17.604  67.400  0.00  0.00    -0.003 A 
ENDBRANCH   1   9
BRANCH   1  18
ATOM     15  N   UNL     1     -11.631  13.601  64.335  0.00  0.00    -0.268 NA
ATOM     16  C   UNL     1     -11.262  14.974  64.674  0.00  0.00    +0.090 C 
ATOM     17  C   UNL     1     -10.270  14.855  65.825  0.00  0.00    +0.090 C 
ATOM     18  N   UNL     1     -10.932  14.375  67.037  0.00  0.00    -0.264 NA
ATOM     19  C   UNL     1     -12.293  14.007  66.671  0.00  0.00    +0.090 C 
ATOM     20  C   UNL     1     -12.300  13.069  65.507  0.00  0.00    +0.090 C 
BRANCH  15  21
ATOM     21  C   UNL     1     -10.472  12.781  64.083  0.00  0.00    +0.105 C 
BRANCH  21  22
ATOM     22  C   UNL     1     -10.705  11.324  64.371  0.00  0.00    +0.160 C 
BRANCH  22  23
ATOM     23  O   UNL     1      -9.684  10.748  65.119  0.00  0.00    -0.341 OA
BRANCH  23  24
ATOM     24  C   UNL     1     -10.145   9.871  66.085  0.00  0.00    +0.257 C 
BRANCH  24  26
ATOM     25  O   UNL     1      -9.662  11.219  67.793  0.00  0.00    -0.243 OA
ATOM     26  C   UNL     1     -10.412  10.610  67.335  0.00  0.00    +0.394 C 
ATOM     27  O   UNL     1     -11.715  10.599  67.845  0.00  0.00    -0.243 OA
ENDBRANCH  24  26
ENDBRANCH  23  24
ENDBRANCH  22  23
ENDBRANCH  21  22
ENDBRANCH  15  21
ENDBRANCH   1  18
TORSDOF 8
ENDMDL
MODEL 8
REMARK VINA RESULT:      -5.8      3.763      7.254
REMARK  Name = 
REMARK  8 active torsions:
REMARK  status: ('A' for Active; 'I' for Inactive)
REMARK    1  A    between atoms: C_2  and  C_4
REMARK    2  A    between atoms: C_4  and  O_5
REMARK    3  A    between atoms: O_5  and  C_6
REMARK    4  A    between atoms: C_6  and  C_7
REMARK    5  A    between atoms: C_7  and  N_8
REMARK    6  A    between atoms: N_11  and  C_12
REMARK    7  A    between atoms: C_12  and  C_13
REMARK    8  A    between atoms: C_12  and  C_19
REMARK                            x       y       z     vdW  Elec       q    Type
REMARK                         _______ _______ _______ _____ _____    ______ ____
ROOT
ATOM      1  C   UNL     1      -7.440  19.912  67.838  0.00  0.00    +0.103 C 
ENDROOT
BRANCH   1   2
ATOM      2  C   UNL     1      -6.542  19.158  69.004  0.00  0.00    -0.004 A 
ATOM      3  C   UNL     1      -6.380  20.061  70.052  0.00  0.00    -0.002 A 
ATOM      4  C   UNL     1      -5.157  20.251  70.685  0.00  0.00    +0.011 A 
ATOM      5  C   UNL     1      -4.046  19.527  70.270  0.00  0.00    +0.058 A 
ATOM      6 CL   UNL     1      -2.403  20.069  70.602  0.00  0.00    -0.082 Cl
ATOM      7  C   UNL     1      -4.307  18.475  69.399  0.00  0.00    +0.011 A 
ATOM      8  C   UNL     1      -5.348  18.667  68.500  0.00  0.00    -0.002 A 
ENDBRANCH   1   2
BRANCH   1   9
ATOM      9  C   UNL     1      -6.163  20.094  66.816  0.00  0.00    -0.004 A 
ATOM     10  C   UNL     1      -5.529  21.285  66.853  0.00  0.00    -0.003 A 
ATOM     11  C   UNL     1      -4.481  21.432  65.951  0.00  0.00    -0.000 A 
ATOM     12  C   UNL     1      -4.470  20.673  64.798  0.00  0.00    -0.000 A 
ATOM     13  C   UNL     1      -5.430  19.686  64.609  0.00  0.00    -0.000 A 
ATOM     14  C   UNL     1      -6.303  19.381  65.646  0.00  0.00    -0.003 A 
ENDBRANCH   1   9
BRANCH   1  18
ATOM     15  N   UNL     1     -10.410  17.140  67.289  0.00  0.00    -0.268 NA
ATOM     16  C   UNL     1     -10.312  18.598  67.299  0.00  0.00    +0.090 C 
ATOM     17  C   UNL     1      -9.068  18.927  66.480  0.00  0.00    +0.090 C 
ATOM     18  N   UNL     1      -7.857  18.503  67.179  0.00  0.00    -0.264 NA
ATOM     19  C   UNL     1      -8.274  17.747  68.351  0.00  0.00    +0.090 C 
ATOM     20  C   UNL     1      -9.228  16.658  67.976  0.00  0.00    +0.090 C 
BRANCH  15  21
ATOM     21  C   UNL     1     -10.383  16.611  65.948  0.00  0.00    +0.105 C 
BRANCH  21  22
ATOM     22  C   UNL     1      -9.547  15.368  65.821  0.00  0.00    +0.160 C 
BRANCH  22  23
ATOM     23  O   UNL     1     -10.227  14.316  65.216  0.00  0.00    -0.341 OA
BRANCH  23  24
ATOM     24  C   UNL     1     -11.452  14.051  65.802  0.00  0.00    +0.257 C 
BRANCH  24  26
ATOM     25  O   UNL     1     -12.579  14.462  63.924  0.00  0.00    -0.243 OA
ATOM     26  C   UNL     1     -12.458  13.796  64.752  0.00  0.00    +0.394 C 
ATOM     27  O   UNL     1     -13.166  12.591  64.794  0.00  0.00    -0.243 OA
ENDBRANCH  24  26
ENDBRANCH  23  24
ENDBRANCH  22  23
ENDBRANCH  21  22
ENDBRANCH  15  21
ENDBRANCH   1  18
TORSDOF 8
ENDMDL
MODEL 9
REMARK VINA RESULT:      -5.7      5.408      7.006
REMARK  Name = 
REMARK  8 active torsions:
REMARK  status: ('A' for Active; 'I' for Inactive)
REMARK    1  A    between atoms: C_2  and  C_4
REMARK    2  A    between atoms: C_4  and  O_5
REMARK    3  A    between atoms: O_5  and  C_6
REMARK    4  A    between atoms: C_6  and  C_7
REMARK    5  A    between atoms: C_7  and  N_8
REMARK    6  A    between atoms: N_11  and  C_12
REMARK    7  A    between atoms: C_12  and  C_13
REMARK    8  A    between atoms: C_12  and  C_19
REMARK                            x       y       z     vdW  Elec       q    Type
REMARK                         _______ _______ _______ _____ _____    ______ ____
ROOT
ATOM      1  C   UNL     1      -9.656   9.006  69.682  0.00  0.00    +0.103 C 
ENDROOT
BRANCH   1   2
ATOM      2  C   UNL     1     -10.605   8.731  71.008  0.00  0.00    -0.004 A 
ATOM      3  C   UNL     1      -9.755   8.509  72.088  0.00  0.00    -0.002 A 
ATOM      4  C   UNL     1      -9.967   7.482  73.000  0.00  0.00    +0.011 A 
ATOM      5  C   UNL     1     -11.057   6.635  72.843  0.00  0.00    +0.058 A 
ATOM      6 CL   UNL     1     -11.106   5.032  73.574  0.00  0.00    -0.082 Cl
ATOM      7  C   UNL     1     -12.002   7.040  71.907  0.00  0.00    +0.011 A 
ATOM      8  C   UNL     1     -11.512   7.706  70.790  0.00  0.00    -0.002 A 
ENDBRANCH   1   2
BRANCH   1   9
ATOM      9  C   UNL     1     -10.053   7.579  68.964  0.00  0.00    -0.004 A 
ATOM     10  C   UNL     1      -9.186   6.558  69.136  0.00  0.00    -0.003 A 
ATOM     11  C   UNL     1      -9.520   5.376  68.485  0.00  0.00    -0.000 A 
ATOM     12  C   UNL     1     -10.326   5.424  67.366  0.00  0.00    -0.000 A 
ATOM     13  C   UNL     1     -10.896   6.629  66.973  0.00  0.00    -0.000 A 
ATOM     14  C   UNL     1     -10.762   7.742  67.795  0.00  0.00    -0.003 A 
ENDBRANCH   1   9
BRANCH   1  18
ATOM     15  N   UNL     1     -11.076  12.630  68.396  0.00  0.00    -0.268 NA
ATOM     16  C   UNL     1      -9.781  11.955  68.437  0.00  0.00    +0.090 C 
ATOM     17  C   UNL     1     -10.049  10.533  67.955  0.00  0.00    +0.090 C 
ATOM     18  N   UNL     1     -10.845   9.793  68.933  0.00  0.00    -0.264 NA
ATOM     19  C   UNL     1     -11.257  10.738  69.961  0.00  0.00    +0.090 C 
ATOM     20  C   UNL     1     -11.914  11.937  69.355  0.00  0.00    +0.090 C 
BRANCH  15  21
ATOM     21  C   UNL     1     -11.701  12.512  67.102  0.00  0.00    +0.105 C 
BRANCH  21  22
ATOM     22  C   UNL     1     -12.129  13.835  66.530  0.00  0.00    +0.160 C 
BRANCH  22  23
ATOM     23  O   UNL     1     -12.904  13.706  65.383  0.00  0.00    -0.341 OA
BRANCH  23  24
ATOM     24  C   UNL     1     -12.203  13.973  64.220  0.00  0.00    +0.257 C 
BRANCH  24  26
ATOM     25  O   UNL     1     -10.925  12.383  63.321  0.00  0.00    -0.243 OA
ATOM     26  C   UNL     1     -11.926  12.709  63.508  0.00  0.00    +0.394 C 
ATOM     27  O   UNL     1     -13.006  11.879  63.192  0.00  0.00    -0.243 OA
ENDBRANCH  24  26
ENDBRANCH  23  24
ENDBRANCH  22  23
ENDBRANCH  21  22
ENDBRANCH  15  21
ENDBRANCH   1  18
TORSDOF 8
ENDMDL
