MODEL 1
REMARK VINA RESULT:      -5.0      0.000      0.000
REMARK  Name = 
REMARK  1 active torsions:
REMARK  status: ('A' for Active; 'I' for Inactive)
REMARK    1  A    between atoms: C_2  and  C_4
REMARK                            x       y       z     vdW  Elec       q    Type
REMARK                         _______ _______ _______ _____ _____    ______ ____
ROOT
ATOM      1  C   UNL     1     -11.573  12.908  65.469  0.00  0.00    +0.016 C 
ATOM      2  C   UNL     1     -12.535  13.874  66.072  0.00  0.00    +0.001 C 
ATOM      3  C   UNL     1     -11.917  14.515  67.280  0.00  0.00    +0.000 C 
ATOM      4  C   UNL     1     -10.687  15.245  66.831  0.00  0.00    +0.000 C 
ATOM      5  C   UNL     1      -9.749  14.266  66.161  0.00  0.00    +0.000 C 
ATOM      6  C   UNL     1      -9.454  13.213  67.220  0.00  0.00    +0.000 C 
ATOM      7  C   UNL     1     -10.673  12.424  67.607  0.00  0.00    +0.000 C 
ATOM      8  C   UNL     1     -11.645  13.393  68.248  0.00  0.00    +0.000 C 
ATOM      9  C   UNL     1     -10.384  13.619  64.937  0.00  0.00    +0.001 C 
ATOM     10  C   UNL     1     -11.285  11.775  66.383  0.00  0.00    +0.001 C 
ENDROOT
BRANCH   1  12
ATOM     11  C   UNL     1     -11.084  11.960  63.363  0.00  0.00    +0.020 C 
ATOM     12  C   UNL     1     -12.439  12.354  64.201  0.00  0.00    +0.092 C 
ATOM     13  N   UNL     1     -12.520  13.777  63.535  0.00  0.00    -0.133 NA
ENDBRANCH   1  12
TORSDOF 1
ENDMDL
MODEL 2
REMARK VINA RESULT:      -4.9      3.758      5.771
REMARK  Name = 
REMARK  1 active torsions:
REMARK  status: ('A' for Active; 'I' for Inactive)
REMARK    1  A    between atoms: C_2  and  C_4
REMARK                            x       y       z     vdW  Elec       q    Type
REMARK                         _______ _______ _______ _____ _____    ______ ____
ROOT
ATOM      1  C   UNL     1      -9.969  17.500  66.886  0.00  0.00    +0.016 C 
ATOM      2  C   UNL     1      -8.499  17.329  66.705  0.00  0.00    +0.001 C 
ATOM      3  C   UNL     1      -7.791  18.594  67.092  0.00  0.00    +0.000 C 
ATOM      4  C   UNL     1      -8.091  18.862  68.535  0.00  0.00    +0.000 C 
ATOM      5  C   UNL     1      -9.589  18.967  68.716  0.00  0.00    +0.000 C 
ATOM      6  C   UNL     1     -10.018  20.108  67.804  0.00  0.00    +0.000 C 
ATOM      7  C   UNL     1      -9.795  19.802  66.350  0.00  0.00    +0.000 C 
ATOM      8  C   UNL     1      -8.300  19.655  66.151  0.00  0.00    +0.000 C 
ATOM      9  C   UNL     1     -10.301  17.681  68.320  0.00  0.00    +0.001 C 
ATOM     10  C   UNL     1     -10.519  18.528  65.967  0.00  0.00    +0.001 C 
ENDROOT
BRANCH   1  12
ATOM     11  C   UNL     1      -8.990  15.472  66.177  0.00  0.00    +0.020 C 
ATOM     12  C   UNL     1     -10.514  16.033  66.421  0.00  0.00    +0.092 C 
ATOM     13  N   UNL     1     -10.665  16.479  64.920  0.00  0.00    -0.133 NA
ENDBRANCH   1  12
TORSDOF 1
ENDMDL
MODEL 3
REMARK VINA RESULT:      -4.9      3.732      5.373
REMARK  Name = 
REMARK  1 active torsions:
REMARK  status: ('A' for Active; 'I' for Inactive)
REMARK    1  A    between atoms: C_2  and  C_4
REMARK                            x       y       z     vdW  Elec       q    Type
REMARK                         _______ _______ _______ _____ _____    ______ ____
ROOT
ATOM      1  C   UNL     1      -9.818  17.378  66.936  0.00  0.00    +0.016 C 
ATOM      2  C   UNL     1     -10.409  18.434  66.065  0.00  0.00    +0.001 C 
ATOM      3  C   UNL     1      -9.806  19.765  66.404  0.00  0.00    +0.000 C 
ATOM      4  C   UNL     1      -8.332  19.676  66.153  0.00  0.00    +0.000 C 
ATOM      5  C   UNL     1      -7.755  18.558  66.992  0.00  0.00    +0.000 C 
ATOM      6  C   UNL     1      -8.086  18.932  68.431  0.00  0.00    +0.000 C 
ATOM      7  C   UNL     1      -9.564  18.938  68.702  0.00  0.00    +0.000 C 
ATOM      8  C   UNL     1     -10.170  20.028  67.842  0.00  0.00    +0.000 C 
ATOM      9  C   UNL     1      -8.373  17.210  66.644  0.00  0.00    +0.001 C 
ATOM     10  C   UNL     1     -10.162  17.588  68.365  0.00  0.00    +0.001 C 
ENDROOT
BRANCH   1  12
ATOM     11  C   UNL     1      -9.192  15.253  66.121  0.00  0.00    +0.020 C 
ATOM     12  C   UNL     1     -10.600  16.052  66.395  0.00  0.00    +0.092 C 
ATOM     13  N   UNL     1     -10.661  16.593  64.920  0.00  0.00    -0.133 NA
ENDBRANCH   1  12
TORSDOF 1
ENDMDL
MODEL 4
REMARK VINA RESULT:      -4.9      0.188      2.085
REMARK  Name = 
REMARK  1 active torsions:
REMARK  status: ('A' for Active; 'I' for Inactive)
REMARK    1  A    between atoms: C_2  and  C_4
REMARK                            x       y       z     vdW  Elec       q    Type
REMARK                         _______ _______ _______ _____ _____    ______ ____
ROOT
ATOM      1  C   UNL     1     -11.640  13.023  65.377  0.00  0.00    +0.016 C 
ATOM      2  C   UNL     1     -11.297  11.849  66.229  0.00  0.00    +0.001 C 
ATOM      3  C   UNL     1     -10.618  12.315  67.483  0.00  0.00    +0.000 C 
ATOM      4  C   UNL     1     -11.574  13.207  68.216  0.00  0.00    +0.000 C 
ATOM      5  C   UNL     1     -11.965  14.357  67.316  0.00  0.00    +0.000 C 
ATOM      6  C   UNL     1     -10.655  15.055  66.974  0.00  0.00    +0.000 C 
ATOM      7  C   UNL     1      -9.732  14.188  66.166  0.00  0.00    +0.000 C 
ATOM      8  C   UNL     1      -9.356  13.006  67.035  0.00  0.00    +0.000 C 
ATOM      9  C   UNL     1     -12.652  13.877  66.045  0.00  0.00    +0.001 C 
ATOM     10  C   UNL     1     -10.423  13.728  64.899  0.00  0.00    +0.001 C 
ENDROOT
BRANCH   1  12
ATOM     11  C   UNL     1     -10.910  11.948  63.406  0.00  0.00    +0.020 C 
ATOM     12  C   UNL     1     -12.355  12.290  64.106  0.00  0.00    +0.092 C 
ATOM     13  N   UNL     1     -12.501  13.638  63.310  0.00  0.00    -0.133 NA
ENDBRANCH   1  12
TORSDOF 1
ENDMDL
MODEL 5
REMARK VINA RESULT:      -4.9      0.192      2.040
REMARK  Name = 
REMARK  1 active torsions:
REMARK  status: ('A' for Active; 'I' for Inactive)
REMARK    1  A    between atoms: C_2  and  C_4
REMARK                            x       y       z     vdW  Elec       q    Type
REMARK                         _______ _______ _______ _____ _____    ______ ____
ROOT
ATOM      1  C   UNL     1     -11.701  12.895  65.439  0.00  0.00    +0.016 C 
ATOM      2  C   UNL     1     -10.507  13.599  64.892  0.00  0.00    +0.001 C 
ATOM      3  C   UNL     1      -9.745  14.246  66.011  0.00  0.00    +0.000 C 
ATOM      4  C   UNL     1      -9.305  13.165  66.949  0.00  0.00    +0.000 C 
ATOM      5  C   UNL     1     -10.521  12.415  67.445  0.00  0.00    +0.000 C 
ATOM      6  C   UNL     1     -11.384  13.468  68.126  0.00  0.00    +0.000 C 
ATOM      7  C   UNL     1     -11.896  14.506  67.167  0.00  0.00    +0.000 C 
ATOM      8  C   UNL     1     -10.689  15.247  66.627  0.00  0.00    +0.000 C 
ATOM      9  C   UNL     1     -11.289  11.762  66.304  0.00  0.00    +0.001 C 
ATOM     10  C   UNL     1     -12.669  13.844  66.045  0.00  0.00    +0.001 C 
ENDROOT
BRANCH   1  12
ATOM     11  C   UNL     1     -10.875  12.022  63.407  0.00  0.00    +0.020 C 
ATOM     12  C   UNL     1     -12.353  12.279  64.075  0.00  0.00    +0.092 C 
ATOM     13  N   UNL     1     -12.485  13.696  63.406  0.00  0.00    -0.133 NA
ENDBRANCH   1  12
TORSDOF 1
ENDMDL
MODEL 6
REMARK VINA RESULT:      -4.9      3.725      5.440
REMARK  Name = 
REMARK  1 active torsions:
REMARK  status: ('A' for Active; 'I' for Inactive)
REMARK    1  A    between atoms: C_2  and  C_4
REMARK                            x       y       z     vdW  Elec       q    Type
REMARK                         _______ _______ _______ _____ _____    ______ ____
ROOT
ATOM      1  C   UNL     1      -9.830  17.458  66.722  0.00  0.00    +0.016 C 
ATOM      2  C   UNL     1     -10.132  17.599  68.175  0.00  0.00    +0.001 C 
ATOM      3  C   UNL     1      -9.523  18.867  68.698  0.00  0.00    +0.000 C 
ATOM      4  C   UNL     1     -10.131  20.010  67.945  0.00  0.00    +0.000 C 
ATOM      5  C   UNL     1      -9.875  19.820  66.467  0.00  0.00    +0.000 C 
ATOM      6  C   UNL     1      -8.359  19.768  66.331  0.00  0.00    +0.000 C 
ATOM      7  C   UNL     1      -7.758  18.573  67.016  0.00  0.00    +0.000 C 
ATOM      8  C   UNL     1      -8.036  18.722  68.498  0.00  0.00    +0.000 C 
ATOM      9  C   UNL     1     -10.495  18.531  65.944  0.00  0.00    +0.001 C 
ATOM     10  C   UNL     1      -8.374  17.298  66.477  0.00  0.00    +0.001 C 
ENDROOT
BRANCH   1  12
ATOM     11  C   UNL     1      -9.151  15.274  66.136  0.00  0.00    +0.020 C 
ATOM     12  C   UNL     1     -10.579  16.048  66.382  0.00  0.00    +0.092 C 
ATOM     13  N   UNL     1     -10.728  16.405  64.858  0.00  0.00    -0.133 NA
ENDBRANCH   1  12
TORSDOF 1
ENDMDL
MODEL 7
REMARK VINA RESULT:      -4.7      5.035      6.792
REMARK  Name = 
REMARK  1 active torsions:
REMARK  status: ('A' for Active; 'I' for Inactive)
REMARK    1  A    between atoms: C_2  and  C_4
REMARK                            x       y       z     vdW  Elec       q    Type
REMARK                         _______ _______ _______ _____ _____    ______ ____
ROOT
ATOM      1  C   UNL     1      -7.879  18.636  67.000  0.00  0.00    +0.016 C 
ATOM      2  C   UNL     1      -8.498  19.688  66.144  0.00  0.00    +0.001 C 
ATOM      3  C   UNL     1      -9.975  19.744  66.401  0.00  0.00    +0.000 C 
ATOM      4  C   UNL     1     -10.175  20.090  67.845  0.00  0.00    +0.000 C 
ATOM      5  C   UNL     1      -9.486  19.051  68.701  0.00  0.00    +0.000 C 
ATOM      6  C   UNL     1     -10.135  17.729  68.318  0.00  0.00    +0.000 C 
ATOM      7  C   UNL     1      -9.862  17.341  66.892  0.00  0.00    +0.000 C 
ATOM      8  C   UNL     1     -10.512  18.391  66.013  0.00  0.00    +0.000 C 
ATOM      9  C   UNL     1      -7.988  18.999  68.434  0.00  0.00    +0.001 C 
ATOM     10  C   UNL     1      -8.369  17.280  66.644  0.00  0.00    +0.001 C 
ENDROOT
BRANCH   1  12
ATOM     11  C   UNL     1      -6.347  20.399  66.661  0.00  0.00    +0.020 C 
ATOM     12  C   UNL     1      -6.311  18.760  66.564  0.00  0.00    +0.092 C 
ATOM     13  N   UNL     1      -6.659  18.774  65.030  0.00  0.00    -0.133 NA
ENDBRANCH   1  12
TORSDOF 1
ENDMDL
MODEL 8
REMARK VINA RESULT:      -4.6      1.724      3.663
REMARK  Name = 
REMARK  1 active torsions:
REMARK  status: ('A' for Active; 'I' for Inactive)
REMARK    1  A    between atoms: C_2  and  C_4
REMARK                            x       y       z     vdW  Elec       q    Type
REMARK                         _______ _______ _______ _____ _____    ______ ____
ROOT
ATOM      1  C   UNL     1     -10.246  15.140  66.444  0.00  0.00    +0.016 C 
ATOM      2  C   UNL     1     -10.751  15.320  65.053  0.00  0.00    +0.001 C 
ATOM      3  C   UNL     1     -11.501  14.093  64.625  0.00  0.00    +0.000 C 
ATOM      4  C   UNL     1     -12.659  13.916  65.560  0.00  0.00    +0.000 C 
ATOM      5  C   UNL     1     -12.137  13.802  66.975  0.00  0.00    +0.000 C 
ATOM      6  C   UNL     1     -11.206  12.597  66.957  0.00  0.00    +0.000 C 
ATOM      7  C   UNL     1     -10.001  12.810  66.084  0.00  0.00    +0.000 C 
ATOM      8  C   UNL     1     -10.503  12.965  64.663  0.00  0.00    +0.000 C 
ATOM      9  C   UNL     1     -11.376  15.049  67.402  0.00  0.00    +0.001 C 
ATOM     10  C   UNL     1      -9.246  14.045  66.529  0.00  0.00    +0.001 C 
ENDROOT
BRANCH   1  12
ATOM     11  C   UNL     1     -10.533  16.989  67.883  0.00  0.00    +0.020 C 
ATOM     12  C   UNL     1      -9.488  16.564  66.689  0.00  0.00    +0.092 C 
ATOM     13  N   UNL     1     -10.341  17.296  65.588  0.00  0.00    -0.133 NA
ENDBRANCH   1  12
TORSDOF 1
ENDMDL
MODEL 9
REMARK VINA RESULT:      -4.6      1.819      3.770
REMARK  Name = 
REMARK  1 active torsions:
REMARK  status: ('A' for Active; 'I' for Inactive)
REMARK    1  A    between atoms: C_2  and  C_4
REMARK                            x       y       z     vdW  Elec       q    Type
REMARK                         _______ _______ _______ _____ _____    ______ ____
ROOT
ATOM      1  C   UNL     1     -10.402  15.382  66.390  0.00  0.00    +0.016 C 
ATOM      2  C   UNL     1      -9.356  14.321  66.344  0.00  0.00    +0.001 C 
ATOM      3  C   UNL     1      -9.977  13.016  65.941  0.00  0.00    +0.000 C 
ATOM      4  C   UNL     1     -10.572  13.194  64.578  0.00  0.00    +0.000 C 
ATOM      5  C   UNL     1     -11.582  14.317  64.623  0.00  0.00    +0.000 C 
ATOM      6  C   UNL     1     -12.610  13.884  65.660  0.00  0.00    +0.000 C 
ATOM      7  C   UNL     1     -12.031  13.788  67.043  0.00  0.00    +0.000 C 
ATOM      8  C   UNL     1     -10.985  12.692  67.013  0.00  0.00    +0.000 C 
ATOM      9  C   UNL     1     -10.946  15.638  65.033  0.00  0.00    +0.001 C 
ATOM     10  C   UNL     1     -11.413  15.112  67.443  0.00  0.00    +0.001 C 
ENDROOT
BRANCH   1  12
ATOM     11  C   UNL     1     -10.614  17.126  67.966  0.00  0.00    +0.020 C 
ATOM     12  C   UNL     1      -9.514  16.678  66.832  0.00  0.00    +0.092 C 
ATOM     13  N   UNL     1     -10.167  17.597  65.736  0.00  0.00    -0.133 NA
ENDBRANCH   1  12
TORSDOF 1
ENDMDL
