MODEL 1
REMARK VINA RESULT:      -5.3      0.000      0.000
REMARK  Name = 
REMARK  0 active torsions:
REMARK  status: ('A' for Active; 'I' for Inactive)
REMARK                            x       y       z     vdW  Elec       q    Type
REMARK                         _______ _______ _______ _____ _____    ______ ____
ROOT
ATOM      1  C   UNL     1     -11.757  14.267  68.631  0.00  0.00    +0.137 C 
ATOM      2  N   UNL     1     -11.270  14.529  67.291  0.00  0.00    -0.263 N 
ATOM      3  C   UNL     1     -11.685  13.809  66.221  0.00  0.00    +0.335 A 
ATOM      4  O   UNL     1     -12.153  12.671  66.409  0.00  0.00    -0.246 OA
ATOM      5  N   UNL     1     -11.659  14.394  64.998  0.00  0.00    -0.245 N 
ATOM      6  C   UNL     1     -12.284  13.755  63.866  0.00  0.00    +0.138 C 
ATOM      7  C   UNL     1     -11.178  15.652  64.849  0.00  0.00    +0.285 A 
ATOM      8  O   UNL     1     -11.564  16.413  63.914  0.00  0.00    -0.265 OA
ATOM      9  C   UNL     1     -10.387  16.174  65.864  0.00  0.00    +0.173 A 
ATOM     10  N   UNL     1      -9.384  17.054  65.828  0.00  0.00    -0.216 NA
ATOM     11  C   UNL     1      -8.807  16.993  67.049  0.00  0.00    +0.200 A 
ATOM     12  N   UNL     1      -9.572  16.247  67.882  0.00  0.00    -0.205 NA
ATOM     13  C   UNL     1     -10.537  15.660  67.144  0.00  0.00    +0.172 A 
ENDROOT
TORSDOF 0
ENDMDL
MODEL 2
REMARK VINA RESULT:      -5.2      2.071      2.391
REMARK  Name = 
REMARK  0 active torsions:
REMARK  status: ('A' for Active; 'I' for Inactive)
REMARK                            x       y       z     vdW  Elec       q    Type
REMARK                         _______ _______ _______ _____ _____    ______ ____
ROOT
ATOM      1  C   UNL     1     -10.904  16.470  69.457  0.00  0.00    +0.137 C 
ATOM      2  N   UNL     1     -10.461  16.598  68.083  0.00  0.00    -0.263 N 
ATOM      3  C   UNL     1     -10.153  15.521  67.321  0.00  0.00    +0.335 A 
ATOM      4  O   UNL     1      -9.846  14.455  67.887  0.00  0.00    -0.246 OA
ATOM      5  N   UNL     1     -10.283  15.621  65.976  0.00  0.00    -0.245 N 
ATOM      6  C   UNL     1     -10.177  14.451  65.139  0.00  0.00    +0.138 C 
ATOM      7  C   UNL     1     -10.662  16.792  65.407  0.00  0.00    +0.285 A 
ATOM      8  O   UNL     1     -11.266  16.836  64.296  0.00  0.00    -0.265 OA
ATOM      9  C   UNL     1     -10.548  17.951  66.163  0.00  0.00    +0.173 A 
ATOM     10  N   UNL     1     -10.311  19.214  65.799  0.00  0.00    -0.216 NA
ATOM     11  C   UNL     1     -10.040  19.875  66.948  0.00  0.00    +0.200 A 
ATOM     12  N   UNL     1     -10.313  19.080  68.011  0.00  0.00    -0.205 NA
ATOM     13  C   UNL     1     -10.567  17.839  67.546  0.00  0.00    +0.172 A 
ENDROOT
TORSDOF 0
ENDMDL
MODEL 3
REMARK VINA RESULT:      -5.2      1.929      4.179
REMARK  Name = 
REMARK  0 active torsions:
REMARK  status: ('A' for Active; 'I' for Inactive)
REMARK                            x       y       z     vdW  Elec       q    Type
REMARK                         _______ _______ _______ _____ _____    ______ ____
ROOT
ATOM      1  C   UNL     1     -11.992  14.119  64.540  0.00  0.00    +0.137 C 
ATOM      2  N   UNL     1     -11.473  14.493  65.841  0.00  0.00    -0.263 N 
ATOM      3  C   UNL     1     -10.834  15.669  66.050  0.00  0.00    +0.335 A 
ATOM      4  O   UNL     1     -10.319  16.252  65.078  0.00  0.00    -0.246 OA
ATOM      5  N   UNL     1     -10.862  16.208  67.293  0.00  0.00    -0.245 N 
ATOM      6  C   UNL     1     -10.387  17.551  67.521  0.00  0.00    +0.138 C 
ATOM      7  C   UNL     1     -11.473  15.555  68.312  0.00  0.00    +0.285 A 
ATOM      8  O   UNL     1     -11.964  16.167  69.305  0.00  0.00    -0.265 OA
ATOM      9  C   UNL     1     -11.726  14.199  68.158  0.00  0.00    +0.173 A 
ATOM     10  N   UNL     1     -11.785  13.212  69.056  0.00  0.00    -0.216 NA
ATOM     11  C   UNL     1     -11.796  12.068  68.334  0.00  0.00    +0.200 A 
ATOM     12  N   UNL     1     -11.954  12.356  67.019  0.00  0.00    -0.205 NA
ATOM     13  C   UNL     1     -11.842  13.693  66.872  0.00  0.00    +0.172 A 
ENDROOT
TORSDOF 0
ENDMDL
MODEL 4
REMARK VINA RESULT:      -5.2      1.935      3.605
REMARK  Name = 
REMARK  0 active torsions:
REMARK  status: ('A' for Active; 'I' for Inactive)
REMARK                            x       y       z     vdW  Elec       q    Type
REMARK                         _______ _______ _______ _____ _____    ______ ____
ROOT
ATOM      1  C   UNL     1      -8.759  13.211  66.900  0.00  0.00    +0.137 C 
ATOM      2  N   UNL     1      -9.802  14.152  66.541  0.00  0.00    -0.263 N 
ATOM      3  C   UNL     1      -9.747  15.458  66.897  0.00  0.00    +0.335 A 
ATOM      4  O   UNL     1      -9.037  15.786  67.866  0.00  0.00    -0.246 OA
ATOM      5  N   UNL     1     -10.392  16.367  66.125  0.00  0.00    -0.245 N 
ATOM      6  C   UNL     1     -10.191  17.780  66.331  0.00  0.00    +0.138 C 
ATOM      7  C   UNL     1     -11.118  15.965  65.053  0.00  0.00    +0.285 A 
ATOM      8  O   UNL     1     -11.310  16.715  64.052  0.00  0.00    -0.265 OA
ATOM      9  C   UNL     1     -11.494  14.631  64.982  0.00  0.00    +0.173 A 
ATOM     10  N   UNL     1     -12.566  14.050  64.437  0.00  0.00    -0.216 NA
ATOM     11  C   UNL     1     -12.555  12.776  64.890  0.00  0.00    +0.200 A 
ATOM     12  N   UNL     1     -11.386  12.525  65.528  0.00  0.00    -0.205 NA
ATOM     13  C   UNL     1     -10.728  13.695  65.662  0.00  0.00    +0.172 A 
ENDROOT
TORSDOF 0
ENDMDL
MODEL 5
REMARK VINA RESULT:      -5.0      1.924      3.508
REMARK  Name = 
REMARK  0 active torsions:
REMARK  status: ('A' for Active; 'I' for Inactive)
REMARK                            x       y       z     vdW  Elec       q    Type
REMARK                         _______ _______ _______ _____ _____    ______ ____
ROOT
ATOM      1  C   UNL     1     -11.840  13.614  69.047  0.00  0.00    +0.137 C 
ATOM      2  N   UNL     1     -11.661  14.683  68.084  0.00  0.00    -0.263 N 
ATOM      3  C   UNL     1     -11.403  15.958  68.463  0.00  0.00    +0.335 A 
ATOM      4  O   UNL     1     -11.721  16.317  69.612  0.00  0.00    -0.246 OA
ATOM      5  N   UNL     1     -10.726  16.763  67.608  0.00  0.00    -0.245 N 
ATOM      6  C   UNL     1     -10.240  18.050  68.041  0.00  0.00    +0.138 C 
ATOM      7  C   UNL     1     -10.364  16.312  66.382  0.00  0.00    +0.285 A 
ATOM      8  O   UNL     1      -9.359  16.773  65.766  0.00  0.00    -0.265 OA
ATOM      9  C   UNL     1     -11.006  15.187  65.884  0.00  0.00    +0.173 A 
ATOM     10  N   UNL     1     -11.293  14.824  64.632  0.00  0.00    -0.216 NA
ATOM     11  C   UNL     1     -12.152  13.785  64.745  0.00  0.00    +0.200 A 
ATOM     12  N   UNL     1     -12.223  13.386  66.038  0.00  0.00    -0.205 NA
ATOM     13  C   UNL     1     -11.566  14.295  66.788  0.00  0.00    +0.172 A 
ENDROOT
TORSDOF 0
ENDMDL
MODEL 6
REMARK VINA RESULT:      -4.9      2.756      4.269
REMARK  Name = 
REMARK  0 active torsions:
REMARK  status: ('A' for Active; 'I' for Inactive)
REMARK                            x       y       z     vdW  Elec       q    Type
REMARK                         _______ _______ _______ _____ _____    ______ ____
ROOT
ATOM      1  C   UNL     1     -11.331  11.170  69.275  0.00  0.00    +0.137 C 
ATOM      2  N   UNL     1     -11.800  12.490  68.903  0.00  0.00    -0.263 N 
ATOM      3  C   UNL     1     -12.095  13.436  69.827  0.00  0.00    +0.335 A 
ATOM      4  O   UNL     1     -12.367  13.076  70.987  0.00  0.00    -0.246 OA
ATOM      5  N   UNL     1     -11.990  14.740  69.473  0.00  0.00    -0.245 N 
ATOM      6  C   UNL     1     -12.082  15.780  70.468  0.00  0.00    +0.138 C 
ATOM      7  C   UNL     1     -11.648  15.083  68.207  0.00  0.00    +0.285 A 
ATOM      8  O   UNL     1     -11.064  16.174  67.940  0.00  0.00    -0.265 OA
ATOM      9  C   UNL     1     -11.777  14.123  67.213  0.00  0.00    +0.173 A 
ATOM     10  N   UNL     1     -12.049  14.240  65.911  0.00  0.00    -0.216 NA
ATOM     11  C   UNL     1     -12.317  12.985  65.484  0.00  0.00    +0.200 A 
ATOM     12  N   UNL     1     -12.008  12.093  66.457  0.00  0.00    -0.205 NA
ATOM     13  C   UNL     1     -11.731  12.786  67.581  0.00  0.00    +0.172 A 
ENDROOT
TORSDOF 0
ENDMDL
MODEL 7
REMARK VINA RESULT:      -4.9      1.078      3.160
REMARK  Name = 
REMARK  0 active torsions:
REMARK  status: ('A' for Active; 'I' for Inactive)
REMARK                            x       y       z     vdW  Elec       q    Type
REMARK                         _______ _______ _______ _____ _____    ______ ____
ROOT
ATOM      1  C   UNL     1      -9.431  17.049  66.466  0.00  0.00    +0.137 C 
ATOM      2  N   UNL     1     -10.572  16.156  66.484  0.00  0.00    -0.263 N 
ATOM      3  C   UNL     1     -11.146  15.697  65.346  0.00  0.00    +0.335 A 
ATOM      4  O   UNL     1     -10.984  16.341  64.292  0.00  0.00    -0.246 OA
ATOM      5  N   UNL     1     -11.795  14.508  65.382  0.00  0.00    -0.245 N 
ATOM      6  C   UNL     1     -12.235  13.875  64.163  0.00  0.00    +0.138 C 
ATOM      7  C   UNL     1     -11.910  13.823  66.546  0.00  0.00    +0.285 A 
ATOM      8  O   UNL     1     -12.031  12.563  66.576  0.00  0.00    -0.265 OA
ATOM      9  C   UNL     1     -11.695  14.511  67.732  0.00  0.00    +0.173 A 
ATOM     10  N   UNL     1     -12.213  14.339  68.951  0.00  0.00    -0.216 NA
ATOM     11  C   UNL     1     -11.863  15.443  69.650  0.00  0.00    +0.200 A 
ATOM     12  N   UNL     1     -10.971  16.174  68.939  0.00  0.00    -0.205 NA
ATOM     13  C   UNL     1     -10.900  15.648  67.698  0.00  0.00    +0.172 A 
ENDROOT
TORSDOF 0
ENDMDL
MODEL 8
REMARK VINA RESULT:      -4.8      2.200      3.656
REMARK  Name = 
REMARK  0 active torsions:
REMARK  status: ('A' for Active; 'I' for Inactive)
REMARK                            x       y       z     vdW  Elec       q    Type
REMARK                         _______ _______ _______ _____ _____    ______ ____
ROOT
ATOM      1  C   UNL     1     -10.918  14.092  68.745  0.00  0.00    +0.137 C 
ATOM      2  N   UNL     1     -10.926  15.337  68.003  0.00  0.00    -0.263 N 
ATOM      3  C   UNL     1     -10.739  16.536  68.605  0.00  0.00    +0.335 A 
ATOM      4  O   UNL     1     -10.970  16.636  69.825  0.00  0.00    -0.246 OA
ATOM      5  N   UNL     1     -10.219  17.553  67.875  0.00  0.00    -0.245 N 
ATOM      6  C   UNL     1      -9.802  18.776  68.515  0.00  0.00    +0.138 C 
ATOM      7  C   UNL     1      -9.944  17.383  66.559  0.00  0.00    +0.285 A 
ATOM      8  O   UNL     1      -9.046  18.052  65.968  0.00  0.00    -0.265 OA
ATOM      9  C   UNL     1     -10.536  16.313  65.901  0.00  0.00    +0.173 A 
ATOM     10  N   UNL     1     -10.913  16.169  64.629  0.00  0.00    -0.216 NA
ATOM     11  C   UNL     1     -11.667  15.046  64.602  0.00  0.00    +0.200 A 
ATOM     12  N   UNL     1     -11.576  14.403  65.791  0.00  0.00    -0.205 NA
ATOM     13  C   UNL     1     -10.927  15.214  66.652  0.00  0.00    +0.172 A 
ENDROOT
TORSDOF 0
ENDMDL
MODEL 9
REMARK VINA RESULT:      -4.8      1.563      3.338
REMARK  Name = 
REMARK  0 active torsions:
REMARK  status: ('A' for Active; 'I' for Inactive)
REMARK                            x       y       z     vdW  Elec       q    Type
REMARK                         _______ _______ _______ _____ _____    ______ ____
ROOT
ATOM      1  C   UNL     1     -10.563  16.332  65.518  0.00  0.00    +0.137 C 
ATOM      2  N   UNL     1     -11.370  15.191  65.901  0.00  0.00    -0.263 N 
ATOM      3  C   UNL     1     -12.022  14.431  64.989  0.00  0.00    +0.335 A 
ATOM      4  O   UNL     1     -12.282  14.923  63.875  0.00  0.00    -0.246 OA
ATOM      5  N   UNL     1     -12.281  13.135  65.292  0.00  0.00    -0.245 N 
ATOM      6  C   UNL     1     -12.775  12.230  64.283  0.00  0.00    +0.138 C 
ATOM      7  C   UNL     1     -11.940  12.632  66.504  0.00  0.00    +0.285 A 
ATOM      8  O   UNL     1     -11.688  11.403  66.675  0.00  0.00    -0.265 OA
ATOM      9  C   UNL     1     -11.678  13.527  67.532  0.00  0.00    +0.173 A 
ATOM     10  N   UNL     1     -11.849  13.419  68.852  0.00  0.00    -0.216 NA
ATOM     11  C   UNL     1     -11.685  14.669  69.340  0.00  0.00    +0.200 A 
ATOM     12  N   UNL     1     -11.215  15.486  68.366  0.00  0.00    -0.205 NA
ATOM     13  C   UNL     1     -11.268  14.810  67.199  0.00  0.00    +0.172 A 
ENDROOT
TORSDOF 0
ENDMDL
