MODEL 1
REMARK VINA RESULT:      -7.2      0.000      0.000
REMARK  Name = 
REMARK  0 active torsions:
REMARK  status: ('A' for Active; 'I' for Inactive)
REMARK                            x       y       z     vdW  Elec       q    Type
REMARK                         _______ _______ _______ _____ _____    ______ ____
ROOT
ATOM      1  C   UNL     1      -7.144  19.232  67.975  0.00  0.00    +0.033 C 
ATOM      2  C   UNL     1      -8.172  19.301  66.879  0.00  0.00    +0.127 C 
ATOM      3  C   UNL     1      -8.925  18.028  66.688  0.00  0.00    +0.026 C 
ATOM      4  C   UNL     1      -9.256  17.875  68.276  0.00  0.00    +0.002 C 
ATOM      5  C   UNL     1     -10.509  16.774  67.993  0.00  0.00    +0.001 C 
ATOM      6  C   UNL     1      -9.403  15.498  67.856  0.00  0.00    +0.003 C 
ATOM      7  C   UNL     1      -9.244  15.718  66.247  0.00  0.00    +0.000 C 
ATOM      8  C   UNL     1     -10.568  14.377  67.679  0.00  0.00    +0.016 C 
ATOM      9  C   UNL     1     -11.094  14.101  69.039  0.00  0.00    -0.042 C 
ATOM     10  C   UNL     1     -11.762  12.961  69.170  0.00  0.00    +0.029 C 
ATOM     11  C   UNL     1     -11.783  11.975  68.079  0.00  0.00    +0.173 C 
ATOM     12  C   UNL     1     -11.052  12.210  66.795  0.00  0.00    +0.069 C 
ATOM     13  O   UNL     1     -11.924  10.750  68.376  0.00  0.00    -0.291 OA
ATOM     14  C   UNL     1     -11.635  15.319  69.720  0.00  0.00    +0.022 C 
ATOM     15  C   UNL     1     -11.575  14.892  66.727  0.00  0.00    +0.004 C 
ATOM     16  C   UNL     1      -9.896  13.155  67.093  0.00  0.00    +0.012 C 
ATOM     17  C   UNL     1     -10.725  16.498  69.562  0.00  0.00    +0.004 C 
ATOM     18  C   UNL     1     -10.223  19.183  68.190  0.00  0.00    +0.003 C 
ATOM     19  C   UNL     1     -10.196  18.368  65.987  0.00  0.00    +0.002 C 
ATOM     20  C   UNL     1      -8.205  16.841  66.235  0.00  0.00    +0.002 C 
ATOM     21  C   UNL     1      -9.320  20.151  67.426  0.00  0.00    +0.030 C 
ATOM     22  O   UNL     1      -7.683  19.776  65.682  0.00  0.00    -0.226 OA
ENDROOT
TORSDOF 0
ENDMDL
MODEL 2
REMARK VINA RESULT:      -6.9      3.472      5.853
REMARK  Name = 
REMARK  0 active torsions:
REMARK  status: ('A' for Active; 'I' for Inactive)
REMARK                            x       y       z     vdW  Elec       q    Type
REMARK                         _______ _______ _______ _____ _____    ______ ____
ROOT
ATOM      1  C   UNL     1     -12.042  11.531  63.745  0.00  0.00    +0.033 C 
ATOM      2  C   UNL     1     -10.598  11.782  64.084  0.00  0.00    +0.127 C 
ATOM      3  C   UNL     1     -10.411  12.634  65.293  0.00  0.00    +0.026 C 
ATOM      4  C   UNL     1     -11.446  11.753  66.191  0.00  0.00    +0.002 C 
ATOM      5  C   UNL     1     -10.841  12.372  67.644  0.00  0.00    +0.001 C 
ATOM      6  C   UNL     1     -11.789  13.766  67.486  0.00  0.00    +0.003 C 
ATOM      7  C   UNL     1     -10.616  14.554  66.671  0.00  0.00    +0.000 C 
ATOM      8  C   UNL     1     -11.322  14.368  68.922  0.00  0.00    +0.016 C 
ATOM      9  C   UNL     1     -12.111  13.650  69.954  0.00  0.00    -0.042 C 
ATOM     10  C   UNL     1     -12.170  14.244  71.140  0.00  0.00    +0.029 C 
ATOM     11  C   UNL     1     -11.654  15.609  71.321  0.00  0.00    +0.173 C 
ATOM     12  C   UNL     1     -11.055  16.379  70.186  0.00  0.00    +0.069 C 
ATOM     13  O   UNL     1     -12.175  16.338  72.219  0.00  0.00    -0.291 OA
ATOM     14  C   UNL     1     -11.917  12.166  69.917  0.00  0.00    +0.022 C 
ATOM     15  C   UNL     1      -9.857  14.202  69.047  0.00  0.00    +0.004 C 
ATOM     16  C   UNL     1     -11.663  15.842  68.898  0.00  0.00    +0.012 C 
ATOM     17  C   UNL     1     -11.968  11.632  68.519  0.00  0.00    +0.004 C 
ATOM     18  C   UNL     1     -10.402  10.503  66.148  0.00  0.00    +0.003 C 
ATOM     19  C   UNL     1      -9.033  12.379  65.803  0.00  0.00    +0.002 C 
ATOM     20  C   UNL     1     -10.869  14.020  65.260  0.00  0.00    +0.002 C 
ATOM     21  C   UNL     1     -10.064  10.469  64.659  0.00  0.00    +0.030 C 
ATOM     22  O   UNL     1      -9.847  12.243  63.026  0.00  0.00    -0.226 OA
ENDROOT
TORSDOF 0
ENDMDL
MODEL 3
REMARK VINA RESULT:      -6.6      1.428      6.255
REMARK  Name = 
REMARK  0 active torsions:
REMARK  status: ('A' for Active; 'I' for Inactive)
REMARK                            x       y       z     vdW  Elec       q    Type
REMARK                         _______ _______ _______ _____ _____    ______ ____
ROOT
ATOM      1  C   UNL     1     -11.735  14.187  66.026  0.00  0.00    +0.033 C 
ATOM      2  C   UNL     1     -10.918  13.906  67.258  0.00  0.00    +0.127 C 
ATOM      3  C   UNL     1      -9.823  14.892  67.484  0.00  0.00    +0.026 C 
ATOM      4  C   UNL     1     -10.807  16.174  67.283  0.00  0.00    +0.002 C 
ATOM      5  C   UNL     1      -9.723  17.229  68.041  0.00  0.00    +0.001 C 
ATOM      6  C   UNL     1      -8.828  17.390  66.613  0.00  0.00    +0.003 C 
ATOM      7  C   UNL     1      -7.860  16.134  66.996  0.00  0.00    +0.000 C 
ATOM      8  C   UNL     1      -7.812  18.486  67.256  0.00  0.00    +0.016 C 
ATOM      9  C   UNL     1      -8.532  19.784  67.243  0.00  0.00    -0.042 C 
ATOM     10  C   UNL     1      -7.764  20.861  67.357  0.00  0.00    +0.029 C 
ATOM     11  C   UNL     1      -6.299  20.748  67.293  0.00  0.00    +0.173 C 
ATOM     12  C   UNL     1      -5.622  19.429  67.090  0.00  0.00    +0.069 C 
ATOM     13  O   UNL     1      -5.635  21.740  66.864  0.00  0.00    -0.291 OA
ATOM     14  C   UNL     1      -9.821  19.750  68.003  0.00  0.00    +0.022 C 
ATOM     15  C   UNL     1      -7.412  18.022  68.602  0.00  0.00    +0.004 C 
ATOM     16  C   UNL     1      -6.599  18.522  66.353  0.00  0.00    +0.012 C 
ATOM     17  C   UNL     1     -10.617  18.520  67.698  0.00  0.00    +0.004 C 
ATOM     18  C   UNL     1     -11.580  15.783  68.664  0.00  0.00    +0.003 C 
ATOM     19  C   UNL     1      -9.454  14.820  68.927  0.00  0.00    +0.002 C 
ATOM     20  C   UNL     1      -8.733  14.972  66.515  0.00  0.00    +0.002 C 
ATOM     21  C   UNL     1     -11.800  14.287  68.448  0.00  0.00    +0.030 C 
ATOM     22  O   UNL     1     -10.450  12.613  67.336  0.00  0.00    -0.226 OA
ENDROOT
TORSDOF 0
ENDMDL
MODEL 4
REMARK VINA RESULT:      -6.6      2.795      4.593
REMARK  Name = 
REMARK  0 active torsions:
REMARK  status: ('A' for Active; 'I' for Inactive)
REMARK                            x       y       z     vdW  Elec       q    Type
REMARK                         _______ _______ _______ _____ _____    ______ ____
ROOT
ATOM      1  C   UNL     1      -5.814  20.027  71.528  0.00  0.00    +0.033 C 
ATOM      2  C   UNL     1      -4.878  19.594  70.433  0.00  0.00    +0.127 C 
ATOM      3  C   UNL     1      -5.522  18.720  69.411  0.00  0.00    +0.026 C 
ATOM      4  C   UNL     1      -6.793  19.720  69.218  0.00  0.00    +0.002 C 
ATOM      5  C   UNL     1      -7.222  19.023  67.737  0.00  0.00    +0.001 C 
ATOM      6  C   UNL     1      -8.030  17.762  68.526  0.00  0.00    +0.003 C 
ATOM      7  C   UNL     1      -6.689  16.835  68.565  0.00  0.00    +0.000 C 
ATOM      8  C   UNL     1      -8.559  17.100  67.138  0.00  0.00    +0.016 C 
ATOM      9  C   UNL     1      -9.726  17.907  66.705  0.00  0.00    -0.042 C 
ATOM     10  C   UNL     1     -10.530  17.320  65.827  0.00  0.00    +0.029 C 
ATOM     11  C   UNL     1     -10.358  15.899  65.486  0.00  0.00    +0.173 C 
ATOM     12  C   UNL     1      -9.287  15.065  66.116  0.00  0.00    +0.069 C 
ATOM     13  O   UNL     1     -11.377  15.239  65.119  0.00  0.00    -0.291 OA
ATOM     14  C   UNL     1      -9.401  19.355  66.508  0.00  0.00    +0.022 C 
ATOM     15  C   UNL     1      -7.439  17.078  66.172  0.00  0.00    +0.004 C 
ATOM     16  C   UNL     1      -8.966  15.681  67.471  0.00  0.00    +0.012 C 
ATOM     17  C   UNL     1      -8.567  19.897  67.627  0.00  0.00    +0.004 C 
ATOM     18  C   UNL     1      -5.805  20.829  68.548  0.00  0.00    +0.003 C 
ATOM     19  C   UNL     1      -4.689  18.796  68.177  0.00  0.00    +0.002 C 
ATOM     20  C   UNL     1      -6.009  17.403  69.812  0.00  0.00    +0.002 C 
ATOM     21  C   UNL     1      -4.655  20.825  69.554  0.00  0.00    +0.030 C 
ATOM     22  O   UNL     1      -3.700  19.045  70.888  0.00  0.00    -0.226 OA
ENDROOT
TORSDOF 0
ENDMDL
MODEL 5
REMARK VINA RESULT:      -6.5      1.690      6.130
REMARK  Name = 
REMARK  0 active torsions:
REMARK  status: ('A' for Active; 'I' for Inactive)
REMARK                            x       y       z     vdW  Elec       q    Type
REMARK                         _______ _______ _______ _____ _____    ______ ____
ROOT
ATOM      1  C   UNL     1     -10.385  12.171  63.776  0.00  0.00    +0.033 C 
ATOM      2  C   UNL     1     -10.974  12.077  65.157  0.00  0.00    +0.127 C 
ATOM      3  C   UNL     1     -10.461  13.116  66.095  0.00  0.00    +0.026 C 
ATOM      4  C   UNL     1     -10.724  14.332  65.043  0.00  0.00    +0.002 C 
ATOM      5  C   UNL     1     -10.650  15.507  66.257  0.00  0.00    +0.001 C 
ATOM      6  C   UNL     1      -8.958  15.508  66.202  0.00  0.00    +0.003 C 
ATOM      7  C   UNL     1      -8.852  14.341  67.337  0.00  0.00    +0.000 C 
ATOM      8  C   UNL     1      -8.823  16.707  67.292  0.00  0.00    +0.016 C 
ATOM      9  C   UNL     1      -9.093  17.970  66.561  0.00  0.00    -0.042 C 
ATOM     10  C   UNL     1      -8.662  19.075  67.157  0.00  0.00    +0.029 C 
ATOM     11  C   UNL     1      -7.805  18.998  68.350  0.00  0.00    +0.173 C 
ATOM     12  C   UNL     1      -7.382  17.685  68.928  0.00  0.00    +0.069 C 
ATOM     13  O   UNL     1      -6.990  19.945  68.570  0.00  0.00    -0.291 OA
ATOM     14  C   UNL     1     -10.441  17.998  65.911  0.00  0.00    +0.022 C 
ATOM     15  C   UNL     1      -9.756  16.435  68.407  0.00  0.00    +0.004 C 
ATOM     16  C   UNL     1      -7.399  16.661  67.801  0.00  0.00    +0.012 C 
ATOM     17  C   UNL     1     -10.745  16.715  65.201  0.00  0.00    +0.004 C 
ATOM     18  C   UNL     1     -12.330  14.101  65.196  0.00  0.00    +0.003 C 
ATOM     19  C   UNL     1     -11.454  13.243  67.199  0.00  0.00    +0.002 C 
ATOM     20  C   UNL     1      -9.047  13.101  66.462  0.00  0.00    +0.002 C 
ATOM     21  C   UNL     1     -12.413  12.583  65.039  0.00  0.00    +0.030 C 
ATOM     22  O   UNL     1     -10.898  10.819  65.713  0.00  0.00    -0.226 OA
ENDROOT
TORSDOF 0
ENDMDL
MODEL 6
REMARK VINA RESULT:      -6.5      1.661      1.982
REMARK  Name = 
REMARK  0 active torsions:
REMARK  status: ('A' for Active; 'I' for Inactive)
REMARK                            x       y       z     vdW  Elec       q    Type
REMARK                         _______ _______ _______ _____ _____    ______ ____
ROOT
ATOM      1  C   UNL     1      -6.057  18.304  69.547  0.00  0.00    +0.033 C 
ATOM      2  C   UNL     1      -6.527  19.018  68.310  0.00  0.00    +0.127 C 
ATOM      3  C   UNL     1      -7.433  18.196  67.456  0.00  0.00    +0.026 C 
ATOM      4  C   UNL     1      -8.381  17.768  68.710  0.00  0.00    +0.002 C 
ATOM      5  C   UNL     1      -9.653  17.303  67.695  0.00  0.00    +0.001 C 
ATOM      6  C   UNL     1      -8.928  15.798  67.419  0.00  0.00    +0.003 C 
ATOM      7  C   UNL     1      -8.108  16.353  66.123  0.00  0.00    +0.000 C 
ATOM      8  C   UNL     1     -10.168  15.256  66.517  0.00  0.00    +0.016 C 
ATOM      9  C   UNL     1     -11.232  14.847  67.467  0.00  0.00    -0.042 C 
ATOM     10  C   UNL     1     -12.154  14.031  66.971  0.00  0.00    +0.029 C 
ATOM     11  C   UNL     1     -11.989  13.436  65.636  0.00  0.00    +0.173 C 
ATOM     12  C   UNL     1     -10.783  13.715  64.796  0.00  0.00    +0.069 C 
ATOM     13  O   UNL     1     -12.528  12.310  65.406  0.00  0.00    -0.291 OA
ATOM     14  C   UNL     1     -11.680  15.958  68.364  0.00  0.00    +0.022 C 
ATOM     15  C   UNL     1     -10.567  16.325  65.576  0.00  0.00    +0.004 C 
ATOM     16  C   UNL     1      -9.641  14.070  65.738  0.00  0.00    +0.012 C 
ATOM     17  C   UNL     1     -10.522  16.728  68.919  0.00  0.00    +0.004 C 
ATOM     18  C   UNL     1      -8.887  19.311  68.840  0.00  0.00    +0.003 C 
ATOM     19  C   UNL     1      -8.207  19.139  66.599  0.00  0.00    +0.002 C 
ATOM     20  C   UNL     1      -6.906  16.990  66.823  0.00  0.00    +0.002 C 
ATOM     21  C   UNL     1      -7.552  20.051  68.780  0.00  0.00    +0.030 C 
ATOM     22  O   UNL     1      -5.512  19.578  67.567  0.00  0.00    -0.226 OA
ENDROOT
TORSDOF 0
ENDMDL
MODEL 7
REMARK VINA RESULT:      -6.5      1.650      2.640
REMARK  Name = 
REMARK  0 active torsions:
REMARK  status: ('A' for Active; 'I' for Inactive)
REMARK                            x       y       z     vdW  Elec       q    Type
REMARK                         _______ _______ _______ _____ _____    ______ ____
ROOT
ATOM      1  C   UNL     1      -6.204  19.691  66.349  0.00  0.00    +0.033 C 
ATOM      2  C   UNL     1      -7.255  19.878  67.409  0.00  0.00    +0.127 C 
ATOM      3  C   UNL     1      -8.343  18.860  67.353  0.00  0.00    +0.026 C 
ATOM      4  C   UNL     1      -7.301  17.611  67.277  0.00  0.00    +0.002 C 
ATOM      5  C   UNL     1      -8.481  16.491  67.740  0.00  0.00    +0.001 C 
ATOM      6  C   UNL     1      -9.071  16.406  66.155  0.00  0.00    +0.003 C 
ATOM      7  C   UNL     1     -10.132  17.618  66.413  0.00  0.00    +0.000 C 
ATOM      8  C   UNL     1     -10.160  15.254  66.518  0.00  0.00    +0.016 C 
ATOM      9  C   UNL     1      -9.413  13.972  66.571  0.00  0.00    -0.042 C 
ATOM     10  C   UNL     1     -10.156  12.877  66.467  0.00  0.00    +0.029 C 
ATOM     11  C   UNL     1     -11.582  12.968  66.120  0.00  0.00    +0.173 C 
ATOM     12  C   UNL     1     -12.245  14.284  65.865  0.00  0.00    +0.069 C 
ATOM     13  O   UNL     1     -12.118  11.993  65.510  0.00  0.00    -0.291 OA
ATOM     14  C   UNL     1      -8.301  13.980  67.573  0.00  0.00    +0.022 C 
ATOM     15  C   UNL     1     -10.832  15.623  67.783  0.00  0.00    +0.004 C 
ATOM     16  C   UNL     1     -11.170  15.253  65.391  0.00  0.00    +0.012 C 
ATOM     17  C   UNL     1      -7.498  15.241  67.505  0.00  0.00    +0.004 C 
ATOM     18  C   UNL     1      -6.827  17.927  68.803  0.00  0.00    +0.003 C 
ATOM     19  C   UNL     1      -8.991  18.834  68.696  0.00  0.00    +0.002 C 
ATOM     20  C   UNL     1      -9.218  18.823  66.185  0.00  0.00    +0.002 C 
ATOM     21  C   UNL     1      -6.613  19.438  68.725  0.00  0.00    +0.030 C 
ATOM     22  O   UNL     1      -7.768  21.155  67.469  0.00  0.00    -0.226 OA
ENDROOT
TORSDOF 0
ENDMDL
MODEL 8
REMARK VINA RESULT:      -6.5      4.424      7.741
REMARK  Name = 
REMARK  0 active torsions:
REMARK  status: ('A' for Active; 'I' for Inactive)
REMARK                            x       y       z     vdW  Elec       q    Type
REMARK                         _______ _______ _______ _____ _____    ______ ____
ROOT
ATOM      1  C   UNL     1     -10.824   6.917  69.450  0.00  0.00    +0.033 C 
ATOM      2  C   UNL     1      -9.460   7.446  69.099  0.00  0.00    +0.127 C 
ATOM      3  C   UNL     1      -9.494   8.597  68.152  0.00  0.00    +0.026 C 
ATOM      4  C   UNL     1     -10.616   9.399  69.018  0.00  0.00    +0.002 C 
ATOM      5  C   UNL     1     -10.265  10.872  68.263  0.00  0.00    +0.001 C 
ATOM      6  C   UNL     1     -11.236  10.463  66.938  0.00  0.00    +0.003 C 
ATOM      7  C   UNL     1      -9.986   9.771  66.149  0.00  0.00    +0.000 C 
ATOM      8  C   UNL     1     -11.017  11.901  66.208  0.00  0.00    +0.016 C 
ATOM      9  C   UNL     1     -11.923  12.858  66.890  0.00  0.00    -0.042 C 
ATOM     10  C   UNL     1     -12.187  13.970  66.214  0.00  0.00    +0.029 C 
ATOM     11  C   UNL     1     -11.761  14.116  64.814  0.00  0.00    +0.173 C 
ATOM     12  C   UNL     1     -11.030  13.025  64.099  0.00  0.00    +0.069 C 
ATOM     13  O   UNL     1     -12.443  14.866  64.051  0.00  0.00    -0.291 OA
ATOM     14  C   UNL     1     -11.665  12.969  68.360  0.00  0.00    +0.022 C 
ATOM     15  C   UNL     1      -9.584  12.254  66.286  0.00  0.00    +0.004 C 
ATOM     16  C   UNL     1     -11.412  11.707  64.760  0.00  0.00    +0.012 C 
ATOM     17  C   UNL     1     -11.480  11.627  68.997  0.00  0.00    +0.004 C 
ATOM     18  C   UNL     1      -9.527   9.612  70.211  0.00  0.00    +0.003 C 
ATOM     19  C   UNL     1      -8.200   9.324  68.295  0.00  0.00    +0.002 C 
ATOM     20  C   UNL     1      -9.999   8.385  66.798  0.00  0.00    +0.002 C 
ATOM     21  C   UNL     1      -8.965   8.197  70.335  0.00  0.00    +0.030 C 
ATOM     22  O   UNL     1      -8.577   6.477  68.676  0.00  0.00    -0.226 OA
ENDROOT
TORSDOF 0
ENDMDL
MODEL 9
REMARK VINA RESULT:      -6.4      1.326      6.225
REMARK  Name = 
REMARK  0 active torsions:
REMARK  status: ('A' for Active; 'I' for Inactive)
REMARK                            x       y       z     vdW  Elec       q    Type
REMARK                         _______ _______ _______ _____ _____    ______ ____
ROOT
ATOM      1  C   UNL     1     -11.689  12.604  69.199  0.00  0.00    +0.033 C 
ATOM      2  C   UNL     1     -11.157  12.497  67.796  0.00  0.00    +0.127 C 
ATOM      3  C   UNL     1     -10.579  13.771  67.280  0.00  0.00    +0.026 C 
ATOM      4  C   UNL     1      -9.672  14.009  68.612  0.00  0.00    +0.002 C 
ATOM      5  C   UNL     1      -8.661  15.115  67.826  0.00  0.00    +0.001 C 
ATOM      6  C   UNL     1      -9.778  16.364  68.073  0.00  0.00    +0.003 C 
ATOM      7  C   UNL     1     -10.533  16.060  66.658  0.00  0.00    +0.000 C 
ATOM      8  C   UNL     1      -8.809  17.494  67.418  0.00  0.00    +0.016 C 
ATOM      9  C   UNL     1      -7.813  17.847  68.460  0.00  0.00    -0.042 C 
ATOM     10  C   UNL     1      -7.185  19.002  68.278  0.00  0.00    +0.029 C 
ATOM     11  C   UNL     1      -7.617  19.932  67.224  0.00  0.00    +0.173 C 
ATOM     12  C   UNL     1      -8.775  19.621  66.329  0.00  0.00    +0.069 C 
ATOM     13  O   UNL     1      -7.416  21.173  67.395  0.00  0.00    -0.291 OA
ATOM     14  C   UNL     1      -7.011  16.673  68.929  0.00  0.00    +0.022 C 
ATOM     15  C   UNL     1      -8.226  16.949  66.173  0.00  0.00    +0.004 C 
ATOM     16  C   UNL     1      -9.696  18.674  67.085  0.00  0.00    +0.012 C 
ATOM     17  C   UNL     1      -7.871  15.473  69.180  0.00  0.00    +0.004 C 
ATOM     18  C   UNL     1      -8.766  12.714  68.214  0.00  0.00    +0.003 C 
ATOM     19  C   UNL     1      -9.661  13.417  66.159  0.00  0.00    +0.002 C 
ATOM     20  C   UNL     1     -11.458  14.921  67.091  0.00  0.00    +0.002 C 
ATOM     21  C   UNL     1      -9.859  11.695  67.895  0.00  0.00    +0.030 C 
ATOM     22  O   UNL     1     -12.050  11.954  66.898  0.00  0.00    -0.226 OA
ENDROOT
TORSDOF 0
ENDMDL
