MODEL 1
REMARK VINA RESULT:      -7.4      0.000      0.000
REMARK  Name = 
REMARK  2 active torsions:
REMARK  status: ('A' for Active; 'I' for Inactive)
REMARK    1  A    between atoms: S_2  and  C_5
REMARK    2  A    between atoms: C_7  and  C_8
REMARK                            x       y       z     vdW  Elec       q    Type
REMARK                         _______ _______ _______ _____ _____    ______ ____
ROOT
ATOM      1  C   UNL     1     -11.783  13.204  66.098  0.00  0.00    +0.135 A 
ATOM      2  C   UNL     1     -11.465  12.016  66.743  0.00  0.00    +0.076 A 
ATOM      3 CL   UNL     1     -10.598  10.730  65.909  0.00  0.00    -0.081 Cl
ATOM      4  C   UNL     1     -11.611  12.015  68.125  0.00  0.00    +0.013 A 
ATOM      5  C   UNL     1     -11.628  13.233  68.791  0.00  0.00    +0.001 A 
ATOM      6  C   UNL     1     -11.461  14.442  68.125  0.00  0.00    +0.030 A 
ATOM      7  C   UNL     1     -11.714  14.410  66.757  0.00  0.00    +0.021 A 
ENDROOT
BRANCH   6   8
ATOM      8  C   UNL     1     -10.695  15.563  68.756  0.00  0.00    +0.242 C 
ATOM      9  C   UNL     1      -9.423  15.832  68.032  0.00  0.00    +0.033 A 
ATOM     10  C   UNL     1      -9.261  17.173  67.816  0.00  0.00    +0.055 A 
ATOM     11  C   UNL     1      -8.002  17.712  67.583  0.00  0.00    +0.004 A 
ATOM     12  C   UNL     1      -7.040  16.876  67.034  0.00  0.00    +0.000 A 
ATOM     13  C   UNL     1      -7.161  15.514  67.229  0.00  0.00    -0.000 A 
ATOM     14  C   UNL     1     -10.569  17.783  67.964  0.00  0.00    +0.267 C 
ATOM     15  O   UNL     1     -10.909  18.923  67.525  0.00  0.00    -0.268 OA
ATOM     16  C   UNL     1      -8.367  15.003  67.688  0.00  0.00    +0.000 A 
ATOM     17  N   UNL     1     -11.384  16.823  68.638  0.00  0.00    -0.167 NA
ATOM     18  O   UNL     1     -10.355  15.276  70.072  0.00  0.00    -0.194 OA
ENDBRANCH   6   8
BRANCH   1  20
ATOM     19  N   UNL     1     -11.166  12.723  63.756  0.00  0.00    +0.039 NA
ATOM     20  S   UNL     1     -12.122  13.071  64.377  0.00  0.00    +0.094 S 
ATOM     21  O   UNL     1     -12.655  14.414  63.923  0.00  0.00    -0.150 OA
ATOM     22  O   UNL     1     -13.287  12.120  64.204  0.00  0.00    -0.150 OA
ENDBRANCH   1  20
TORSDOF 2
ENDMDL
MODEL 2
REMARK VINA RESULT:      -7.0      3.061      5.978
REMARK  Name = 
REMARK  2 active torsions:
REMARK  status: ('A' for Active; 'I' for Inactive)
REMARK    1  A    between atoms: S_2  and  C_5
REMARK    2  A    between atoms: C_7  and  C_8
REMARK                            x       y       z     vdW  Elec       q    Type
REMARK                         _______ _______ _______ _____ _____    ______ ____
ROOT
ATOM      1  C   UNL     1     -10.912  15.749  67.127  0.00  0.00    +0.135 A 
ATOM      2  C   UNL     1     -10.263  16.280  66.019  0.00  0.00    +0.076 A 
ATOM      3 CL   UNL     1      -8.648  16.970  66.153  0.00  0.00    -0.081 Cl
ATOM      4  C   UNL     1     -10.826  15.983  64.783  0.00  0.00    +0.013 A 
ATOM      5  C   UNL     1     -11.672  14.886  64.686  0.00  0.00    +0.001 A 
ATOM      6  C   UNL     1     -11.937  14.059  65.771  0.00  0.00    +0.030 A 
ATOM      7  C   UNL     1     -11.681  14.612  67.022  0.00  0.00    +0.021 A 
ENDROOT
BRANCH   6   8
ATOM      8  C   UNL     1     -12.097  12.582  65.584  0.00  0.00    +0.242 C 
ATOM      9  C   UNL     1     -10.942  11.994  64.855  0.00  0.00    +0.033 A 
ATOM     10  C   UNL     1     -10.501  10.858  65.477  0.00  0.00    +0.055 A 
ATOM     11  C   UNL     1      -9.767   9.903  64.785  0.00  0.00    +0.004 A 
ATOM     12  C   UNL     1      -9.034  10.332  63.688  0.00  0.00    +0.000 A 
ATOM     13  C   UNL     1      -9.443  11.473  63.026  0.00  0.00    -0.000 A 
ATOM     14  C   UNL     1     -11.017  10.895  66.833  0.00  0.00    +0.267 C 
ATOM     15  O   UNL     1     -10.575  10.222  67.812  0.00  0.00    -0.268 OA
ATOM     16  C   UNL     1     -10.363  12.314  63.636  0.00  0.00    +0.000 A 
ATOM     17  N   UNL     1     -12.060  11.871  66.837  0.00  0.00    -0.167 NA
ATOM     18  O   UNL     1     -13.235  12.278  64.846  0.00  0.00    -0.194 OA
ENDBRANCH   6   8
BRANCH   1  20
ATOM     19  N   UNL     1      -9.538  16.141  69.140  0.00  0.00    +0.039 NA
ATOM     20  S   UNL     1     -10.559  16.528  68.664  0.00  0.00    +0.094 S 
ATOM     21  O   UNL     1     -11.751  16.291  69.567  0.00  0.00    -0.150 OA
ATOM     22  O   UNL     1     -10.546  18.025  68.434  0.00  0.00    -0.150 OA
ENDBRANCH   1  20
TORSDOF 2
ENDMDL
MODEL 3
REMARK VINA RESULT:      -6.8      1.906      2.885
REMARK  Name = 
REMARK  2 active torsions:
REMARK  status: ('A' for Active; 'I' for Inactive)
REMARK    1  A    between atoms: S_2  and  C_5
REMARK    2  A    between atoms: C_7  and  C_8
REMARK                            x       y       z     vdW  Elec       q    Type
REMARK                         _______ _______ _______ _____ _____    ______ ____
ROOT
ATOM      1  C   UNL     1     -11.516  13.546  65.627  0.00  0.00    +0.135 A 
ATOM      2  C   UNL     1     -11.475  12.750  66.765  0.00  0.00    +0.076 A 
ATOM      3 CL   UNL     1     -11.261  11.006  66.650  0.00  0.00    -0.081 Cl
ATOM      4  C   UNL     1     -11.326  13.421  67.973  0.00  0.00    +0.013 A 
ATOM      5  C   UNL     1     -10.810  14.710  67.956  0.00  0.00    +0.001 A 
ATOM      6  C   UNL     1     -10.401  15.328  66.779  0.00  0.00    +0.030 A 
ATOM      7  C   UNL     1     -10.926  14.789  65.608  0.00  0.00    +0.021 A 
ENDROOT
BRANCH   6   8
ATOM      8  C   UNL     1      -9.202  16.222  66.762  0.00  0.00    +0.242 C 
ATOM      9  C   UNL     1      -9.480  17.525  67.426  0.00  0.00    +0.033 A 
ATOM     10  C   UNL     1      -8.473  17.856  68.290  0.00  0.00    +0.055 A 
ATOM     11  C   UNL     1      -8.266  19.175  68.675  0.00  0.00    +0.004 A 
ATOM     12  C   UNL     1      -9.359  20.029  68.642  0.00  0.00    +0.000 A 
ATOM     13  C   UNL     1     -10.400  19.736  67.782  0.00  0.00    -0.000 A 
ATOM     14  C   UNL     1      -7.745  16.633  68.574  0.00  0.00    +0.267 C 
ATOM     15  O   UNL     1      -6.973  16.443  69.561  0.00  0.00    -0.268 OA
ATOM     16  C   UNL     1     -10.471  18.471  67.215  0.00  0.00    +0.000 A 
ATOM     17  N   UNL     1      -8.124  15.698  67.563  0.00  0.00    -0.167 NA
ATOM     18  O   UNL     1      -8.794  16.512  65.465  0.00  0.00    -0.194 OA
ENDBRANCH   6   8
BRANCH   1  20
ATOM     19  N   UNL     1     -13.192  12.154  64.464  0.00  0.00    +0.039 NA
ATOM     20  S   UNL     1     -12.226  12.801  64.200  0.00  0.00    +0.094 S 
ATOM     21  O   UNL     1     -11.139  11.981  63.539  0.00  0.00    -0.150 OA
ATOM     22  O   UNL     1     -12.533  13.900  63.206  0.00  0.00    -0.150 OA
ENDBRANCH   1  20
TORSDOF 2
ENDMDL
MODEL 4
REMARK VINA RESULT:      -6.7      4.192      6.075
REMARK  Name = 
REMARK  2 active torsions:
REMARK  status: ('A' for Active; 'I' for Inactive)
REMARK    1  A    between atoms: S_2  and  C_5
REMARK    2  A    between atoms: C_7  and  C_8
REMARK                            x       y       z     vdW  Elec       q    Type
REMARK                         _______ _______ _______ _____ _____    ______ ____
ROOT
ATOM      1  C   UNL     1     -12.814  14.559  70.711  0.00  0.00    +0.135 A 
ATOM      2  C   UNL     1     -12.092  15.718  70.451  0.00  0.00    +0.076 A 
ATOM      3 CL   UNL     1     -11.339  16.633  71.753  0.00  0.00    -0.081 Cl
ATOM      4  C   UNL     1     -11.766  15.946  69.120  0.00  0.00    +0.013 A 
ATOM      5  C   UNL     1     -11.775  14.871  68.241  0.00  0.00    +0.001 A 
ATOM      6  C   UNL     1     -12.059  13.576  68.659  0.00  0.00    +0.030 A 
ATOM      7  C   UNL     1     -12.744  13.475  69.866  0.00  0.00    +0.021 A 
ENDROOT
BRANCH   6   8
ATOM      8  C   UNL     1     -11.339  12.407  68.065  0.00  0.00    +0.242 C 
ATOM      9  C   UNL     1     -11.298  12.486  66.580  0.00  0.00    +0.033 A 
ATOM     10  C   UNL     1     -10.039  12.224  66.113  0.00  0.00    +0.055 A 
ATOM     11  C   UNL     1      -9.836  11.798  64.806  0.00  0.00    +0.004 A 
ATOM     12  C   UNL     1     -10.783  12.163  63.860  0.00  0.00    +0.000 A 
ATOM     13  C   UNL     1     -12.068  12.434  64.285  0.00  0.00    -0.000 A 
ATOM     14  C   UNL     1      -9.131  12.408  67.230  0.00  0.00    +0.267 C 
ATOM     15  O   UNL     1      -7.879  12.589  67.144  0.00  0.00    -0.268 OA
ATOM     16  C   UNL     1     -12.305  12.633  65.638  0.00  0.00    +0.000 A 
ATOM     17  N   UNL     1      -9.939  12.401  68.407  0.00  0.00    -0.167 NA
ATOM     18  O   UNL     1     -11.959  11.204  68.386  0.00  0.00    -0.194 OA
ENDBRANCH   6   8
BRANCH   1  20
ATOM     19  N   UNL     1     -14.394  13.577  72.334  0.00  0.00    +0.039 NA
ATOM     20  S   UNL     1     -13.678  14.526  72.242  0.00  0.00    +0.094 S 
ATOM     21  O   UNL     1     -14.429  15.835  72.359  0.00  0.00    -0.150 OA
ATOM     22  O   UNL     1     -12.654  14.573  73.356  0.00  0.00    -0.150 OA
ENDBRANCH   1  20
TORSDOF 2
ENDMDL
MODEL 5
REMARK VINA RESULT:      -6.6      4.592      7.114
REMARK  Name = 
REMARK  2 active torsions:
REMARK  status: ('A' for Active; 'I' for Inactive)
REMARK    1  A    between atoms: S_2  and  C_5
REMARK    2  A    between atoms: C_7  and  C_8
REMARK                            x       y       z     vdW  Elec       q    Type
REMARK                         _______ _______ _______ _____ _____    ______ ____
ROOT
ATOM      1  C   UNL     1      -6.357  18.100  69.610  0.00  0.00    +0.135 A 
ATOM      2  C   UNL     1      -6.638  19.407  69.231  0.00  0.00    +0.076 A 
ATOM      3 CL   UNL     1      -5.352  20.591  69.017  0.00  0.00    -0.081 Cl
ATOM      4  C   UNL     1      -7.927  19.642  68.766  0.00  0.00    +0.013 A 
ATOM      5  C   UNL     1      -8.673  18.565  68.306  0.00  0.00    +0.001 A 
ATOM      6  C   UNL     1      -8.157  17.275  68.259  0.00  0.00    +0.030 A 
ATOM      7  C   UNL     1      -7.056  17.041  69.078  0.00  0.00    +0.021 A 
ENDROOT
BRANCH   6   8
ATOM      8  C   UNL     1      -8.508  16.352  67.135  0.00  0.00    +0.242 C 
ATOM      9  C   UNL     1      -9.708  15.532  67.453  0.00  0.00    +0.033 A 
ATOM     10  C   UNL     1     -10.588  15.529  66.405  0.00  0.00    +0.055 A 
ATOM     11  C   UNL     1     -11.530  14.518  66.265  0.00  0.00    +0.004 A 
ATOM     12  C   UNL     1     -11.938  13.861  67.417  0.00  0.00    +0.000 A 
ATOM     13  C   UNL     1     -11.081  13.835  68.500  0.00  0.00    -0.000 A 
ATOM     14  C   UNL     1     -10.246  16.664  65.568  0.00  0.00    +0.267 C 
ATOM     15  O   UNL     1     -11.003  17.202  64.705  0.00  0.00    -0.268 OA
ATOM     16  C   UNL     1      -9.997  14.702  68.525  0.00  0.00    +0.000 A 
ATOM     17  N   UNL     1      -8.933  17.069  65.959  0.00  0.00    -0.167 NA
ATOM     18  O   UNL     1      -7.476  15.463  66.858  0.00  0.00    -0.194 OA
ENDBRANCH   6   8
BRANCH   1  20
ATOM     19  N   UNL     1      -3.940  18.102  70.111  0.00  0.00    +0.039 NA
ATOM     20  S   UNL     1      -4.971  17.895  70.673  0.00  0.00    +0.094 S 
ATOM     21  O   UNL     1      -5.052  16.497  71.245  0.00  0.00    -0.150 OA
ATOM     22  O   UNL     1      -5.160  18.808  71.865  0.00  0.00    -0.150 OA
ENDBRANCH   1  20
TORSDOF 2
ENDMDL
MODEL 6
REMARK VINA RESULT:      -6.6      4.144      6.623
REMARK  Name = 
REMARK  2 active torsions:
REMARK  status: ('A' for Active; 'I' for Inactive)
REMARK    1  A    between atoms: S_2  and  C_5
REMARK    2  A    between atoms: C_7  and  C_8
REMARK                            x       y       z     vdW  Elec       q    Type
REMARK                         _______ _______ _______ _____ _____    ______ ____
ROOT
ATOM      1  C   UNL     1      -6.940  19.168  67.299  0.00  0.00    +0.135 A 
ATOM      2  C   UNL     1      -6.608  18.831  68.606  0.00  0.00    +0.076 A 
ATOM      3 CL   UNL     1      -6.179  20.067  69.784  0.00  0.00    -0.081 Cl
ATOM      4  C   UNL     1      -6.906  17.530  68.993  0.00  0.00    +0.013 A 
ATOM      5  C   UNL     1      -7.856  16.823  68.268  0.00  0.00    +0.001 A 
ATOM      6  C   UNL     1      -8.543  17.389  67.201  0.00  0.00    +0.030 A 
ATOM      7  C   UNL     1      -7.942  18.506  66.628  0.00  0.00    +0.021 A 
ENDROOT
BRANCH   6   8
ATOM      8  C   UNL     1      -9.984  17.064  66.961  0.00  0.00    +0.242 C 
ATOM      9  C   UNL     1     -10.199  15.598  66.820  0.00  0.00    +0.033 A 
ATOM     10  C   UNL     1     -11.266  15.188  67.572  0.00  0.00    +0.055 A 
ATOM     11  C   UNL     1     -11.937  14.008  67.278  0.00  0.00    +0.004 A 
ATOM     12  C   UNL     1     -11.224  13.015  66.621  0.00  0.00    +0.000 A 
ATOM     13  C   UNL     1     -10.141  13.382  65.848  0.00  0.00    -0.000 A 
ATOM     14  C   UNL     1     -11.507  16.226  68.558  0.00  0.00    +0.267 C 
ATOM     15  O   UNL     1     -12.168  16.088  69.631  0.00  0.00    -0.268 OA
ATOM     16  C   UNL     1      -9.614  14.659  65.986  0.00  0.00    +0.000 A 
ATOM     17  N   UNL     1     -10.808  17.384  68.099  0.00  0.00    -0.167 NA
ATOM     18  O   UNL     1     -10.457  17.653  65.794  0.00  0.00    -0.194 OA
ENDBRANCH   6   8
BRANCH   1  20
ATOM     19  N   UNL     1      -6.514  21.592  67.105  0.00  0.00    +0.039 NA
ATOM     20  S   UNL     1      -6.110  20.572  66.639  0.00  0.00    +0.094 S 
ATOM     21  O   UNL     1      -6.268  20.515  65.135  0.00  0.00    -0.150 OA
ATOM     22  O   UNL     1      -4.626  20.389  66.875  0.00  0.00    -0.150 OA
ENDBRANCH   1  20
TORSDOF 2
ENDMDL
MODEL 7
REMARK VINA RESULT:      -6.6      2.296      2.901
REMARK  Name = 
REMARK  2 active torsions:
REMARK  status: ('A' for Active; 'I' for Inactive)
REMARK    1  A    between atoms: S_2  and  C_5
REMARK    2  A    between atoms: C_7  and  C_8
REMARK                            x       y       z     vdW  Elec       q    Type
REMARK                         _______ _______ _______ _____ _____    ______ ____
ROOT
ATOM      1  C   UNL     1     -10.698  13.307  66.906  0.00  0.00    +0.135 A 
ATOM      2  C   UNL     1     -11.185  13.642  65.649  0.00  0.00    +0.076 A 
ATOM      3 CL   UNL     1     -12.635  12.882  65.001  0.00  0.00    -0.081 Cl
ATOM      4  C   UNL     1     -10.644  14.785  65.071  0.00  0.00    +0.013 A 
ATOM      5  C   UNL     1     -10.029  15.717  65.897  0.00  0.00    +0.001 A 
ATOM      6  C   UNL     1      -9.975  15.562  67.277  0.00  0.00    +0.030 A 
ATOM      7  C   UNL     1     -10.166  14.263  67.740  0.00  0.00    +0.021 A 
ENDROOT
BRANCH   6   8
ATOM      8  C   UNL     1     -10.103  16.745  68.184  0.00  0.00    +0.242 C 
ATOM      9  C   UNL     1      -8.803  17.449  68.353  0.00  0.00    +0.033 A 
ATOM     10  C   UNL     1      -8.959  18.801  68.211  0.00  0.00    +0.055 A 
ATOM     11  C   UNL     1      -8.036  19.688  68.750  0.00  0.00    +0.004 A 
ATOM     12  C   UNL     1      -6.738  19.230  68.928  0.00  0.00    +0.000 A 
ATOM     13  C   UNL     1      -6.533  17.873  69.079  0.00  0.00    -0.000 A 
ATOM     14  C   UNL     1     -10.217  19.006  67.517  0.00  0.00    +0.267 C 
ATOM     15  O   UNL     1     -10.562  20.063  66.906  0.00  0.00    -0.268 OA
ATOM     16  C   UNL     1      -7.555  16.994  68.750  0.00  0.00    +0.000 A 
ATOM     17  N   UNL     1     -10.935  17.776  67.616  0.00  0.00    -0.167 NA
ATOM     18  O   UNL     1     -10.527  16.375  69.455  0.00  0.00    -0.194 OA
ENDBRANCH   6   8
BRANCH   1  20
ATOM     19  N   UNL     1     -12.062  11.446  67.785  0.00  0.00    +0.039 NA
ATOM     20  S   UNL     1     -10.950  11.638  67.402  0.00  0.00    +0.094 S 
ATOM     21  O   UNL     1      -9.908  11.324  68.454  0.00  0.00    -0.150 OA
ATOM     22  O   UNL     1     -10.592  10.746  66.232  0.00  0.00    -0.150 OA
ENDBRANCH   1  20
TORSDOF 2
ENDMDL
MODEL 8
REMARK VINA RESULT:      -6.4      4.184      6.114
REMARK  Name = 
REMARK  2 active torsions:
REMARK  status: ('A' for Active; 'I' for Inactive)
REMARK    1  A    between atoms: S_2  and  C_5
REMARK    2  A    between atoms: C_7  and  C_8
REMARK                            x       y       z     vdW  Elec       q    Type
REMARK                         _______ _______ _______ _____ _____    ______ ____
ROOT
ATOM      1  C   UNL     1     -11.267  11.992  65.295  0.00  0.00    +0.135 A 
ATOM      2  C   UNL     1     -10.467  11.182  64.500  0.00  0.00    +0.076 A 
ATOM      3 CL   UNL     1      -9.579  11.842  63.129  0.00  0.00    -0.081 Cl
ATOM      4  C   UNL     1     -10.187   9.918  65.005  0.00  0.00    +0.013 A 
ATOM      5  C   UNL     1     -10.327   9.703  66.370  0.00  0.00    +0.001 A 
ATOM      6  C   UNL     1     -10.695  10.719  67.244  0.00  0.00    +0.030 A 
ATOM      7  C   UNL     1     -11.327  11.812  66.658  0.00  0.00    +0.021 A 
ENDROOT
BRANCH   6   8
ATOM      8  C   UNL     1     -10.103  10.798  68.616  0.00  0.00    +0.242 C 
ATOM      9  C   UNL     1     -11.018  10.228  69.642  0.00  0.00    +0.033 A 
ATOM     10  C   UNL     1     -10.343   9.389  70.484  0.00  0.00    +0.055 A 
ATOM     11  C   UNL     1     -10.836   9.097  71.750  0.00  0.00    +0.004 A 
ATOM     12  C   UNL     1     -12.208   9.191  71.938  0.00  0.00    +0.000 A 
ATOM     13  C   UNL     1     -12.931  10.029  71.112  0.00  0.00    -0.000 A 
ATOM     14  C   UNL     1      -9.112   9.019  69.810  0.00  0.00    +0.267 C 
ATOM     15  O   UNL     1      -8.384   8.020  70.092  0.00  0.00    -0.268 OA
ATOM     16  C   UNL     1     -12.341  10.506  69.950  0.00  0.00    +0.000 A 
ATOM     17  N   UNL     1      -8.937   9.962  68.752  0.00  0.00    -0.167 NA
ATOM     18  O   UNL     1      -9.848  12.112  68.991  0.00  0.00    -0.194 OA
ENDBRANCH   6   8
BRANCH   1  20
ATOM     19  N   UNL     1     -12.437  13.026  63.383  0.00  0.00    +0.039 NA
ATOM     20  S   UNL     1     -12.057  13.330  64.471  0.00  0.00    +0.094 S 
ATOM     21  O   UNL     1     -11.072  14.479  64.443  0.00  0.00    -0.150 OA
ATOM     22  O   UNL     1     -13.188  13.817  65.351  0.00  0.00    -0.150 OA
ENDBRANCH   1  20
TORSDOF 2
ENDMDL
MODEL 9
REMARK VINA RESULT:      -6.3      3.286      4.538
REMARK  Name = 
REMARK  2 active torsions:
REMARK  status: ('A' for Active; 'I' for Inactive)
REMARK    1  A    between atoms: S_2  and  C_5
REMARK    2  A    between atoms: C_7  and  C_8
REMARK                            x       y       z     vdW  Elec       q    Type
REMARK                         _______ _______ _______ _____ _____    ______ ____
ROOT
ATOM      1  C   UNL     1      -9.160   9.781  64.546  0.00  0.00    +0.135 A 
ATOM      2  C   UNL     1      -8.510   9.293  65.672  0.00  0.00    +0.076 A 
ATOM      3 CL   UNL     1      -6.755   9.156  65.722  0.00  0.00    -0.081 Cl
ATOM      4  C   UNL     1      -9.278   9.194  66.826  0.00  0.00    +0.013 A 
ATOM      5  C   UNL     1     -10.439   9.952  66.916  0.00  0.00    +0.001 A 
ATOM      6  C   UNL     1     -10.828  10.831  65.912  0.00  0.00    +0.030 A 
ATOM      7  C   UNL     1     -10.262  10.598  64.662  0.00  0.00    +0.021 A 
ENDROOT
BRANCH   6   8
ATOM      8  C   UNL     1     -11.477  12.136  66.249  0.00  0.00    +0.242 C 
ATOM      9  C   UNL     1     -10.508  13.263  66.185  0.00  0.00    +0.033 A 
ATOM     10  C   UNL     1     -11.034  14.320  65.495  0.00  0.00    +0.055 A 
ATOM     11  C   UNL     1     -10.543  15.607  65.675  0.00  0.00    +0.004 A 
ATOM     12  C   UNL     1      -9.226  15.736  66.093  0.00  0.00    +0.000 A 
ATOM     13  C   UNL     1      -8.653  14.694  66.796  0.00  0.00    -0.000 A 
ATOM     14  C   UNL     1     -12.139  13.801  64.711  0.00  0.00    +0.267 C 
ATOM     15  O   UNL     1     -12.664  14.366  63.705  0.00  0.00    -0.268 OA
ATOM     16  C   UNL     1      -9.280  13.456  66.800  0.00  0.00    +0.000 A 
ATOM     17  N   UNL     1     -12.458  12.523  65.265  0.00  0.00    -0.167 NA
ATOM     18  O   UNL     1     -12.004  12.132  67.535  0.00  0.00    -0.194 OA
ENDBRANCH   6   8
BRANCH   1  20
ATOM     19  N   UNL     1      -7.447  10.104  62.798  0.00  0.00    +0.039 NA
ATOM     20  S   UNL     1      -8.398   9.415  63.004  0.00  0.00    +0.094 S 
ATOM     21  O   UNL     1      -9.462   9.555  61.937  0.00  0.00    -0.150 OA
ATOM     22  O   UNL     1      -8.043   7.943  62.999  0.00  0.00    -0.150 OA
ENDBRANCH   1  20
TORSDOF 2
ENDMDL
