MODEL 1
REMARK VINA RESULT:      -6.5      0.000      0.000
REMARK  Name = 
REMARK  6 active torsions:
REMARK  status: ('A' for Active; 'I' for Inactive)
REMARK    1  A    between atoms: O_2  and  C_3
REMARK    2  A    between atoms: C_3  and  C_5
REMARK    3  A    between atoms: C_11  and  C_12
REMARK    4  A    between atoms: C_12  and  O_14
REMARK    5  A    between atoms: O_14  and  C_15
REMARK    6  A    between atoms: C_18  and  C_19
REMARK                            x       y       z     vdW  Elec       q    Type
REMARK                         _______ _______ _______ _____ _____    ______ ____
ROOT
ATOM      1  C   UNL     1     -10.902  13.649  66.535  0.00  0.00    +0.073 C 
ATOM      2  C   UNL     1     -11.471  14.695  67.641  0.00  0.00    +0.083 C 
ATOM      3  C   UNL     1     -11.235  13.722  68.914  0.00  0.00    +0.073 C 
ATOM      4  C   UNL     1     -11.643  12.476  68.759  0.00  0.00    +0.051 C 
ATOM      5  C   UNL     1     -11.483  11.595  69.959  0.00  0.00    +0.049 C 
ATOM      6  N   UNL     1     -12.041  11.899  67.533  0.00  0.00    -0.221 NA
ATOM      7  C   UNL     1     -11.778  12.654  66.371  0.00  0.00    +0.051 C 
ATOM      8  C   UNL     1     -12.398  12.293  65.080  0.00  0.00    +0.049 C 
ENDROOT
BRANCH   2   9
ATOM      9  C   UNL     1     -10.038  15.419  67.803  0.00  0.00    +0.009 A 
ATOM     10  C   UNL     1     -10.007  16.762  67.885  0.00  0.00    +0.140 A 
ATOM     11  C   UNL     1      -8.785  17.422  67.947  0.00  0.00    +0.143 A 
ATOM     12  N   UNL     1      -9.143  18.711  67.710  0.00  0.00    -0.048 NA
ATOM     13  O   UNL     1     -10.410  18.875  67.973  0.00  0.00    -0.242 OA
ATOM     14  C   UNL     1      -7.732  16.740  67.343  0.00  0.00    +0.024 A 
ATOM     15  C   UNL     1      -7.739  15.356  67.467  0.00  0.00    +0.001 A 
ATOM     16  N   UNL     1     -10.923  17.706  68.108  0.00  0.00    -0.049 NA
ATOM     17  C   UNL     1      -8.942  14.657  67.522  0.00  0.00    -0.002 A 
ENDBRANCH   2   9
BRANCH   1  18
ATOM     18  C   UNL     1     -10.607  14.356  65.273  0.00  0.00    +0.339 C 
ATOM     19  O   UNL     1      -9.957  13.763  64.356  0.00  0.00    -0.245 OA
BRANCH  18  21
ATOM     20  C   UNL     1     -11.270  16.594  64.532  0.00  0.00    +0.256 C 
ATOM     21  O   UNL     1     -11.554  15.263  64.780  0.00  0.00    -0.442 OA
ENDBRANCH  18  21
ENDBRANCH   1  18
BRANCH   3  22
ATOM     22  C   UNL     1     -11.801  14.392  70.101  0.00  0.00    +0.339 C 
ATOM     23  O   UNL     1     -11.087  14.869  71.022  0.00  0.00    -0.245 OA
BRANCH  22  24
ATOM     24  O   UNL     1     -13.161  14.291  70.415  0.00  0.00    -0.449 OA
BRANCH  24  25
ATOM     25  C   UNL     1     -13.661  14.529  71.730  0.00  0.00    +0.169 C 
ATOM     26  C   UNL     1     -15.077  15.050  71.509  0.00  0.00    +0.047 C 
ATOM     27  C   UNL     1     -13.778  13.159  72.384  0.00  0.00    +0.047 C 
ENDBRANCH  24  25
ENDBRANCH  22  24
ENDBRANCH   3  22
TORSDOF 6
ENDMDL
MODEL 2
REMARK VINA RESULT:      -6.2      2.342      5.621
REMARK  Name = 
REMARK  6 active torsions:
REMARK  status: ('A' for Active; 'I' for Inactive)
REMARK    1  A    between atoms: O_2  and  C_3
REMARK    2  A    between atoms: C_3  and  C_5
REMARK    3  A    between atoms: C_11  and  C_12
REMARK    4  A    between atoms: C_12  and  O_14
REMARK    5  A    between atoms: O_14  and  C_15
REMARK    6  A    between atoms: C_18  and  C_19
REMARK                            x       y       z     vdW  Elec       q    Type
REMARK                         _______ _______ _______ _____ _____    ______ ____
ROOT
ATOM      1  C   UNL     1     -10.758  13.887  68.466  0.00  0.00    +0.073 C 
ATOM      2  C   UNL     1     -10.852  14.894  67.194  0.00  0.00    +0.083 C 
ATOM      3  C   UNL     1      -9.398  15.572  67.423  0.00  0.00    +0.073 C 
ATOM      4  C   UNL     1      -9.129  15.932  68.664  0.00  0.00    +0.051 C 
ATOM      5  C   UNL     1      -7.813  16.617  68.863  0.00  0.00    +0.049 C 
ATOM      6  N   UNL     1      -9.892  15.571  69.797  0.00  0.00    -0.221 NA
ATOM      7  C   UNL     1     -10.882  14.586  69.597  0.00  0.00    +0.051 C 
ATOM      8  C   UNL     1     -11.919  14.340  70.620  0.00  0.00    +0.049 C 
ENDROOT
BRANCH   2   9
ATOM      9  C   UNL     1     -10.281  13.781  66.175  0.00  0.00    +0.009 A 
ATOM     10  C   UNL     1     -10.983  13.519  65.057  0.00  0.00    +0.140 A 
ATOM     11  C   UNL     1     -10.562  12.511  64.197  0.00  0.00    +0.143 A 
ATOM     12  N   UNL     1     -11.647  12.347  63.395  0.00  0.00    -0.048 NA
ATOM     13  O   UNL     1     -12.392  13.416  63.432  0.00  0.00    -0.242 OA
ATOM     14  C   UNL     1      -9.837  11.496  64.813  0.00  0.00    +0.024 A 
ATOM     15  C   UNL     1      -8.986  11.880  65.843  0.00  0.00    +0.001 A 
ATOM     16  N   UNL     1     -11.975  14.134  64.411  0.00  0.00    -0.049 NA
ATOM     17  C   UNL     1      -9.311  12.956  66.664  0.00  0.00    -0.002 A 
ENDBRANCH   2   9
BRANCH   1  18
ATOM     18  C   UNL     1     -11.774  12.823  68.345  0.00  0.00    +0.339 C 
ATOM     19  O   UNL     1     -12.668  12.905  67.446  0.00  0.00    -0.245 OA
BRANCH  18  21
ATOM     20  C   UNL     1     -11.982  10.745  69.624  0.00  0.00    +0.256 C 
ATOM     21  O   UNL     1     -11.395  11.505  68.629  0.00  0.00    -0.442 OA
ENDBRANCH  18  21
ENDBRANCH   1  18
BRANCH   3  22
ATOM     22  C   UNL     1      -9.254  16.665  66.441  0.00  0.00    +0.339 C 
ATOM     23  O   UNL     1      -8.222  16.818  65.736  0.00  0.00    -0.245 OA
BRANCH  22  24
ATOM     24  O   UNL     1     -10.129  17.756  66.433  0.00  0.00    -0.449 OA
BRANCH  24  25
ATOM     25  C   UNL     1      -9.678  19.098  66.617  0.00  0.00    +0.169 C 
ATOM     26  C   UNL     1     -10.544  19.923  65.670  0.00  0.00    +0.047 C 
ATOM     27  C   UNL     1     -10.071  19.477  68.038  0.00  0.00    +0.047 C 
ENDBRANCH  24  25
ENDBRANCH  22  24
ENDBRANCH   3  22
TORSDOF 6
ENDMDL
MODEL 3
REMARK VINA RESULT:      -6.2      2.432      3.550
REMARK  Name = 
REMARK  6 active torsions:
REMARK  status: ('A' for Active; 'I' for Inactive)
REMARK    1  A    between atoms: O_2  and  C_3
REMARK    2  A    between atoms: C_3  and  C_5
REMARK    3  A    between atoms: C_11  and  C_12
REMARK    4  A    between atoms: C_12  and  O_14
REMARK    5  A    between atoms: O_14  and  C_15
REMARK    6  A    between atoms: C_18  and  C_19
REMARK                            x       y       z     vdW  Elec       q    Type
REMARK                         _______ _______ _______ _____ _____    ______ ____
ROOT
ATOM      1  C   UNL     1     -10.381  12.919  65.891  0.00  0.00    +0.073 C 
ATOM      2  C   UNL     1     -11.260  12.605  67.222  0.00  0.00    +0.083 C 
ATOM      3  C   UNL     1     -10.490  11.231  67.599  0.00  0.00    +0.073 C 
ATOM      4  C   UNL     1     -10.298  10.395  66.595  0.00  0.00    +0.051 C 
ATOM      5  C   UNL     1      -9.644   9.098  66.958  0.00  0.00    +0.049 C 
ATOM      6  N   UNL     1     -10.499  10.703  65.232  0.00  0.00    -0.221 NA
ATOM      7  C   UNL     1     -10.718  12.062  64.923  0.00  0.00    +0.051 C 
ATOM      8  C   UNL     1     -11.220  12.464  63.594  0.00  0.00    +0.049 C 
ENDROOT
BRANCH   2   9
ATOM      9  C   UNL     1     -10.307  13.511  68.156  0.00  0.00    +0.009 A 
ATOM     10  C   UNL     1     -10.848  14.576  68.779  0.00  0.00    +0.140 A 
ATOM     11  C   UNL     1     -10.039  15.422  69.529  0.00  0.00    +0.143 A 
ATOM     12  N   UNL     1     -10.850  16.495  69.723  0.00  0.00    -0.048 NA
ATOM     13  O   UNL     1     -12.096  16.144  69.564  0.00  0.00    -0.242 OA
ATOM     14  C   UNL     1      -8.711  15.463  69.115  0.00  0.00    +0.024 A 
ATOM     15  C   UNL     1      -8.167  14.268  68.659  0.00  0.00    +0.001 A 
ATOM     16  N   UNL     1     -12.095  14.979  69.025  0.00  0.00    -0.049 NA
ATOM     17  C   UNL     1      -8.963  13.336  67.999  0.00  0.00    -0.002 A 
ENDBRANCH   2   9
BRANCH   1  18
ATOM     18  C   UNL     1     -10.558  14.327  65.487  0.00  0.00    +0.339 C 
ATOM     19  O   UNL     1     -11.681  14.896  65.662  0.00  0.00    -0.245 OA
BRANCH  18  21
ATOM     20  C   UNL     1      -9.610  16.554  65.859  0.00  0.00    +0.256 C 
ATOM     21  O   UNL     1      -9.471  15.200  65.616  0.00  0.00    -0.442 OA
ENDBRANCH  18  21
ENDBRANCH   1  18
BRANCH   3  22
ATOM     22  C   UNL     1     -11.188  10.628  68.751  0.00  0.00    +0.339 C 
ATOM     23  O   UNL     1     -12.443  10.559  68.830  0.00  0.00    -0.245 OA
BRANCH  22  24
ATOM     24  O   UNL     1     -10.517  10.355  69.947  0.00  0.00    -0.449 OA
BRANCH  24  25
ATOM     25  C   UNL     1     -10.505   9.055  70.537  0.00  0.00    +0.169 C 
ATOM     26  C   UNL     1      -9.091   8.900  71.087  0.00  0.00    +0.047 C 
ATOM     27  C   UNL     1     -11.450   9.131  71.728  0.00  0.00    +0.047 C 
ENDBRANCH  24  25
ENDBRANCH  22  24
ENDBRANCH   3  22
TORSDOF 6
ENDMDL
MODEL 4
REMARK VINA RESULT:      -6.0      2.289      4.756
REMARK  Name = 
REMARK  6 active torsions:
REMARK  status: ('A' for Active; 'I' for Inactive)
REMARK    1  A    between atoms: O_2  and  C_3
REMARK    2  A    between atoms: C_3  and  C_5
REMARK    3  A    between atoms: C_11  and  C_12
REMARK    4  A    between atoms: C_12  and  O_14
REMARK    5  A    between atoms: O_14  and  C_15
REMARK    6  A    between atoms: C_18  and  C_19
REMARK                            x       y       z     vdW  Elec       q    Type
REMARK                         _______ _______ _______ _____ _____    ______ ____
ROOT
ATOM      1  C   UNL     1     -10.405  14.896  67.847  0.00  0.00    +0.073 C 
ATOM      2  C   UNL     1     -10.320  13.273  67.835  0.00  0.00    +0.083 C 
ATOM      3  C   UNL     1     -11.609  13.041  68.790  0.00  0.00    +0.073 C 
ATOM      4  C   UNL     1     -11.656  13.795  69.871  0.00  0.00    +0.051 C 
ATOM      5  C   UNL     1     -12.813  13.534  70.785  0.00  0.00    +0.049 C 
ATOM      6  N   UNL     1     -10.820  14.905  70.124  0.00  0.00    -0.221 NA
ATOM      7  C   UNL     1     -10.029  15.352  69.045  0.00  0.00    +0.051 C 
ATOM      8  C   UNL     1      -8.921  16.304  69.264  0.00  0.00    +0.049 C 
ENDROOT
BRANCH   2   9
ATOM      9  C   UNL     1     -11.184  13.163  66.476  0.00  0.00    +0.009 A 
ATOM     10  C   UNL     1     -10.667  12.469  65.445  0.00  0.00    +0.140 A 
ATOM     11  C   UNL     1     -11.349  12.420  64.235  0.00  0.00    +0.143 A 
ATOM     12  N   UNL     1     -10.405  11.919  63.395  0.00  0.00    -0.048 NA
ATOM     13  O   UNL     1      -9.488  11.294  64.080  0.00  0.00    -0.242 OA
ATOM     14  C   UNL     1     -12.163  13.521  63.989  0.00  0.00    +0.024 A 
ATOM     15  C   UNL     1     -12.814  14.067  65.088  0.00  0.00    +0.001 A 
ATOM     16  N   UNL     1      -9.663  11.600  65.314  0.00  0.00    -0.049 NA
ATOM     17  C   UNL     1     -12.220  14.041  66.347  0.00  0.00    -0.002 A 
ENDBRANCH   2   9
BRANCH   1  18
ATOM     18  C   UNL     1      -9.593  15.454  66.749  0.00  0.00    +0.339 C 
ATOM     19  O   UNL     1      -8.668  14.753  66.230  0.00  0.00    -0.245 OA
BRANCH  18  21
ATOM     20  C   UNL     1     -10.345  17.677  66.048  0.00  0.00    +0.256 C 
ATOM     21  O   UNL     1     -10.209  16.317  65.835  0.00  0.00    -0.442 OA
ENDBRANCH  18  21
ENDBRANCH   1  18
BRANCH   3  22
ATOM     22  C   UNL     1     -11.705  11.594  69.067  0.00  0.00    +0.339 C 
ATOM     23  O   UNL     1     -12.375  10.805  68.349  0.00  0.00    -0.245 OA
BRANCH  22  24
ATOM     24  O   UNL     1     -11.297  11.059  70.292  0.00  0.00    -0.449 OA
BRANCH  24  25
ATOM     25  C   UNL     1     -11.684   9.754  70.723  0.00  0.00    +0.169 C 
ATOM     26  C   UNL     1     -10.454   9.213  71.445  0.00  0.00    +0.047 C 
ATOM     27  C   UNL     1     -12.768   9.967  71.770  0.00  0.00    +0.047 C 
ENDBRANCH  24  25
ENDBRANCH  22  24
ENDBRANCH   3  22
TORSDOF 6
ENDMDL
MODEL 5
REMARK VINA RESULT:      -6.0      2.693      3.928
REMARK  Name = 
REMARK  6 active torsions:
REMARK  status: ('A' for Active; 'I' for Inactive)
REMARK    1  A    between atoms: O_2  and  C_3
REMARK    2  A    between atoms: C_3  and  C_5
REMARK    3  A    between atoms: C_11  and  C_12
REMARK    4  A    between atoms: C_12  and  O_14
REMARK    5  A    between atoms: O_14  and  C_15
REMARK    6  A    between atoms: C_18  and  C_19
REMARK                            x       y       z     vdW  Elec       q    Type
REMARK                         _______ _______ _______ _____ _____    ______ ____
ROOT
ATOM      1  C   UNL     1      -9.693  10.207  67.121  0.00  0.00    +0.073 C 
ATOM      2  C   UNL     1     -11.125  10.760  67.654  0.00  0.00    +0.083 C 
ATOM      3  C   UNL     1     -10.795  10.561  69.227  0.00  0.00    +0.073 C 
ATOM      4  C   UNL     1     -10.256   9.400  69.551  0.00  0.00    +0.051 C 
ATOM      5  C   UNL     1     -10.012   9.192  71.014  0.00  0.00    +0.049 C 
ATOM      6  N   UNL     1      -9.754   8.453  68.631  0.00  0.00    -0.221 NA
ATOM      7  C   UNL     1      -9.635   8.883  67.293  0.00  0.00    +0.051 C 
ATOM      8  C   UNL     1      -9.401   7.912  66.205  0.00  0.00    +0.049 C 
ENDROOT
BRANCH   2   9
ATOM      9  C   UNL     1     -10.622  12.293  67.641  0.00  0.00    +0.009 A 
ATOM     10  C   UNL     1     -11.253  13.166  66.834  0.00  0.00    +0.140 A 
ATOM     11  C   UNL     1     -10.796  14.475  66.741  0.00  0.00    +0.143 A 
ATOM     12  N   UNL     1     -11.459  14.933  65.647  0.00  0.00    -0.048 NA
ATOM     13  O   UNL     1     -12.515  14.199  65.428  0.00  0.00    -0.242 OA
ATOM     14  C   UNL     1      -9.438  14.630  67.000  0.00  0.00    +0.024 A 
ATOM     15  C   UNL     1      -8.899  13.814  67.988  0.00  0.00    +0.001 A 
ATOM     16  N   UNL     1     -12.407  13.152  66.164  0.00  0.00    -0.049 NA
ATOM     17  C   UNL     1      -9.398  12.531  68.195  0.00  0.00    -0.002 A 
ENDBRANCH   2   9
BRANCH   1  18
ATOM     18  C   UNL     1      -9.488  10.604  65.714  0.00  0.00    +0.339 C 
ATOM     19  O   UNL     1      -8.328  10.528  65.201  0.00  0.00    -0.245 OA
BRANCH  18  21
ATOM     20  C   UNL     1     -10.716  11.119  63.659  0.00  0.00    +0.256 C 
ATOM     21  O   UNL     1     -10.515  10.357  64.795  0.00  0.00    -0.442 OA
ENDBRANCH  18  21
ENDBRANCH   1  18
BRANCH   3  22
ATOM     22  C   UNL     1     -12.020  10.881  69.986  0.00  0.00    +0.339 C 
ATOM     23  O   UNL     1     -13.154  10.428  69.675  0.00  0.00    -0.245 OA
BRANCH  22  24
ATOM     24  O   UNL     1     -12.048  11.924  70.917  0.00  0.00    -0.449 OA
BRANCH  24  25
ATOM     25  C   UNL     1     -12.888  13.067  70.759  0.00  0.00    +0.169 C 
ATOM     26  C   UNL     1     -13.519  13.267  72.134  0.00  0.00    +0.047 C 
ATOM     27  C   UNL     1     -11.951  14.241  70.515  0.00  0.00    +0.047 C 
ENDBRANCH  24  25
ENDBRANCH  22  24
ENDBRANCH   3  22
TORSDOF 6
ENDMDL
MODEL 6
REMARK VINA RESULT:      -6.0      2.560      5.018
REMARK  Name = 
REMARK  6 active torsions:
REMARK  status: ('A' for Active; 'I' for Inactive)
REMARK    1  A    between atoms: O_2  and  C_3
REMARK    2  A    between atoms: C_3  and  C_5
REMARK    3  A    between atoms: C_11  and  C_12
REMARK    4  A    between atoms: C_12  and  O_14
REMARK    5  A    between atoms: O_14  and  C_15
REMARK    6  A    between atoms: C_18  and  C_19
REMARK                            x       y       z     vdW  Elec       q    Type
REMARK                         _______ _______ _______ _____ _____    ______ ____
ROOT
ATOM      1  C   UNL     1     -11.814  14.083  69.373  0.00  0.00    +0.073 C 
ATOM      2  C   UNL     1     -10.560  13.197  68.842  0.00  0.00    +0.083 C 
ATOM      3  C   UNL     1     -11.342  11.779  68.879  0.00  0.00    +0.073 C 
ATOM      4  C   UNL     1     -12.035  11.541  69.977  0.00  0.00    +0.051 C 
ATOM      5  C   UNL     1     -12.704  10.203  70.036  0.00  0.00    +0.049 C 
ATOM      6  N   UNL     1     -12.318  12.495  70.980  0.00  0.00    -0.221 NA
ATOM      7  C   UNL     1     -12.015  13.837  70.671  0.00  0.00    +0.051 C 
ATOM      8  C   UNL     1     -11.996  14.870  71.727  0.00  0.00    +0.049 C 
ENDROOT
BRANCH   2   9
ATOM      9  C   UNL     1     -10.926  13.471  67.295  0.00  0.00    +0.009 A 
ATOM     10  C   UNL     1     -10.151  14.321  66.596  0.00  0.00    +0.140 A 
ATOM     11  C   UNL     1     -10.483  14.639  65.284  0.00  0.00    +0.143 A 
ATOM     12  N   UNL     1      -9.686  15.712  65.039  0.00  0.00    -0.048 NA
ATOM     13  O   UNL     1      -8.682  15.719  65.872  0.00  0.00    -0.242 OA
ATOM     14  C   UNL     1     -11.841  14.545  64.996  0.00  0.00    +0.024 A 
ATOM     15  C   UNL     1     -12.536  13.515  65.619  0.00  0.00    +0.001 A 
ATOM     16  N   UNL     1      -8.946  14.862  66.790  0.00  0.00    -0.049 NA
ATOM     17  C   UNL     1     -12.170  13.083  66.890  0.00  0.00    -0.002 A 
ENDBRANCH   2   9
BRANCH   1  18
ATOM     18  C   UNL     1     -11.577  15.514  69.099  0.00  0.00    +0.339 C 
ATOM     19  O   UNL     1     -12.555  16.325  69.092  0.00  0.00    -0.245 OA
BRANCH  18  21
ATOM     20  C   UNL     1      -9.891  17.290  69.075  0.00  0.00    +0.256 C 
ATOM     21  O   UNL     1     -10.385  16.091  69.555  0.00  0.00    -0.442 OA
ENDBRANCH  18  21
ENDBRANCH   1  18
BRANCH   3  22
ATOM     22  C   UNL     1     -10.367  10.721  68.548  0.00  0.00    +0.339 C 
ATOM     23  O   UNL     1      -9.242  10.631  69.105  0.00  0.00    -0.245 OA
BRANCH  22  24
ATOM     24  O   UNL     1     -10.513   9.929  67.404  0.00  0.00    -0.449 OA
BRANCH  24  25
ATOM     25  C   UNL     1      -9.512   9.862  66.389  0.00  0.00    +0.169 C 
ATOM     26  C   UNL     1      -9.374   8.372  66.090  0.00  0.00    +0.047 C 
ATOM     27  C   UNL     1     -10.125  10.516  65.158  0.00  0.00    +0.047 C 
ENDBRANCH  24  25
ENDBRANCH  22  24
ENDBRANCH   3  22
TORSDOF 6
ENDMDL
MODEL 7
REMARK VINA RESULT:      -5.9      2.714      4.896
REMARK  Name = 
REMARK  6 active torsions:
REMARK  status: ('A' for Active; 'I' for Inactive)
REMARK    1  A    between atoms: O_2  and  C_3
REMARK    2  A    between atoms: C_3  and  C_5
REMARK    3  A    between atoms: C_11  and  C_12
REMARK    4  A    between atoms: C_12  and  O_14
REMARK    5  A    between atoms: O_14  and  C_15
REMARK    6  A    between atoms: C_18  and  C_19
REMARK                            x       y       z     vdW  Elec       q    Type
REMARK                         _______ _______ _______ _____ _____    ______ ____
ROOT
ATOM      1  C   UNL     1      -7.862  13.668  67.912  0.00  0.00    +0.073 C 
ATOM      2  C   UNL     1      -9.018  13.758  66.774  0.00  0.00    +0.083 C 
ATOM      3  C   UNL     1      -9.927  12.561  67.378  0.00  0.00    +0.073 C 
ATOM      4  C   UNL     1      -9.272  11.467  67.716  0.00  0.00    +0.051 C 
ATOM      5  C   UNL     1     -10.121  10.338  68.213  0.00  0.00    +0.049 C 
ATOM      6  N   UNL     1      -7.866  11.356  67.802  0.00  0.00    -0.221 NA
ATOM      7  C   UNL     1      -7.138  12.561  67.724  0.00  0.00    +0.051 C 
ATOM      8  C   UNL     1      -5.676  12.548  67.514  0.00  0.00    +0.049 C 
ENDROOT
BRANCH   2   9
ATOM      9  C   UNL     1      -9.822  14.906  67.575  0.00  0.00    +0.009 A 
ATOM     10  C   UNL     1     -10.003  16.097  66.974  0.00  0.00    +0.140 A 
ATOM     11  C   UNL     1     -10.622  17.132  67.665  0.00  0.00    +0.143 A 
ATOM     12  N   UNL     1     -10.346  18.205  66.879  0.00  0.00    -0.048 NA
ATOM     13  O   UNL     1     -10.059  17.809  65.670  0.00  0.00    -0.242 OA
ATOM     14  C   UNL     1     -10.474  17.069  69.047  0.00  0.00    +0.024 A 
ATOM     15  C   UNL     1     -10.487  15.800  69.614  0.00  0.00    +0.001 A 
ATOM     16  N   UNL     1      -9.882  16.539  65.721  0.00  0.00    -0.049 NA
ATOM     17  C   UNL     1      -9.979  14.709  68.916  0.00  0.00    -0.002 A 
ENDBRANCH   2   9
BRANCH   1  18
ATOM     18  C   UNL     1      -7.038  14.892  67.895  0.00  0.00    +0.339 C 
ATOM     19  O   UNL     1      -6.893  15.539  66.811  0.00  0.00    -0.245 OA
BRANCH  18  21
ATOM     20  C   UNL     1      -6.764  17.066  68.989  0.00  0.00    +0.256 C 
ATOM     21  O   UNL     1      -7.036  15.711  69.032  0.00  0.00    -0.442 OA
ENDBRANCH  18  21
ENDBRANCH   1  18
BRANCH   3  22
ATOM     22  C   UNL     1     -11.039  12.324  66.436  0.00  0.00    +0.339 C 
ATOM     23  O   UNL     1     -12.247  12.489  66.749  0.00  0.00    -0.245 OA
BRANCH  22  24
ATOM     24  O   UNL     1     -10.840  11.635  65.235  0.00  0.00    -0.449 OA
BRANCH  24  25
ATOM     25  C   UNL     1     -10.861  12.289  63.967  0.00  0.00    +0.169 C 
ATOM     26  C   UNL     1      -9.847  11.519  63.126  0.00  0.00    +0.047 C 
ATOM     27  C   UNL     1     -12.239  12.014  63.380  0.00  0.00    +0.047 C 
ENDBRANCH  24  25
ENDBRANCH  22  24
ENDBRANCH   3  22
TORSDOF 6
ENDMDL
MODEL 8
REMARK VINA RESULT:      -5.9      2.811      5.178
REMARK  Name = 
REMARK  6 active torsions:
REMARK  status: ('A' for Active; 'I' for Inactive)
REMARK    1  A    between atoms: O_2  and  C_3
REMARK    2  A    between atoms: C_3  and  C_5
REMARK    3  A    between atoms: C_11  and  C_12
REMARK    4  A    between atoms: C_12  and  O_14
REMARK    5  A    between atoms: O_14  and  C_15
REMARK    6  A    between atoms: C_18  and  C_19
REMARK                            x       y       z     vdW  Elec       q    Type
REMARK                         _______ _______ _______ _____ _____    ______ ____
ROOT
ATOM      1  C   UNL     1      -6.187  17.271  67.304  0.00  0.00    +0.073 C 
ATOM      2  C   UNL     1      -7.443  16.284  67.007  0.00  0.00    +0.083 C 
ATOM      3  C   UNL     1      -7.478  15.624  68.487  0.00  0.00    +0.073 C 
ATOM      4  C   UNL     1      -6.308  15.248  68.968  0.00  0.00    +0.051 C 
ATOM      5  C   UNL     1      -6.351  14.580  70.307  0.00  0.00    +0.049 C 
ATOM      6  N   UNL     1      -5.055  15.578  68.406  0.00  0.00    -0.221 NA
ATOM      7  C   UNL     1      -5.065  16.551  67.384  0.00  0.00    +0.051 C 
ATOM      8  C   UNL     1      -3.875  16.765  66.535  0.00  0.00    +0.049 C 
ENDROOT
BRANCH   2   9
ATOM      9  C   UNL     1      -8.523  17.422  67.382  0.00  0.00    +0.009 A 
ATOM     10  C   UNL     1      -9.517  17.671  66.509  0.00  0.00    +0.140 A 
ATOM     11  C   UNL     1     -10.419  18.698  66.764  0.00  0.00    +0.143 A 
ATOM     12  N   UNL     1     -11.043  18.835  65.565  0.00  0.00    -0.048 NA
ATOM     13  O   UNL     1     -10.905  17.743  64.865  0.00  0.00    -0.242 OA
ATOM     14  C   UNL     1      -9.909  19.731  67.545  0.00  0.00    +0.024 A 
ATOM     15  C   UNL     1      -9.026  19.365  68.554  0.00  0.00    +0.001 A 
ATOM     16  N   UNL     1     -10.012  17.030  65.448  0.00  0.00    -0.049 NA
ATOM     17  C   UNL     1      -8.178  18.273  68.391  0.00  0.00    -0.002 A 
ENDBRANCH   2   9
BRANCH   1  18
ATOM     18  C   UNL     1      -6.113  18.322  66.271  0.00  0.00    +0.339 C 
ATOM     19  O   UNL     1      -6.736  18.171  65.174  0.00  0.00    -0.245 OA
BRANCH  18  21
ATOM     20  C   UNL     1      -6.554  20.709  65.950  0.00  0.00    +0.256 C 
ATOM     21  O   UNL     1      -6.034  19.658  66.683  0.00  0.00    -0.442 OA
ENDBRANCH  18  21
ENDBRANCH   1  18
BRANCH   3  22
ATOM     22  C   UNL     1      -8.491  14.550  68.474  0.00  0.00    +0.339 C 
ATOM     23  O   UNL     1      -8.456  13.588  67.662  0.00  0.00    -0.245 OA
BRANCH  22  24
ATOM     24  O   UNL     1      -9.699  14.680  69.166  0.00  0.00    -0.449 OA
BRANCH  24  25
ATOM     25  C   UNL     1     -10.963  14.669  68.505  0.00  0.00    +0.169 C 
ATOM     26  C   UNL     1     -11.713  13.501  69.139  0.00  0.00    +0.047 C 
ATOM     27  C   UNL     1     -11.669  15.948  68.936  0.00  0.00    +0.047 C 
ENDBRANCH  24  25
ENDBRANCH  22  24
ENDBRANCH   3  22
TORSDOF 6
ENDMDL
MODEL 9
REMARK VINA RESULT:      -5.9      2.342      5.138
REMARK  Name = 
REMARK  6 active torsions:
REMARK  status: ('A' for Active; 'I' for Inactive)
REMARK    1  A    between atoms: O_2  and  C_3
REMARK    2  A    between atoms: C_3  and  C_5
REMARK    3  A    between atoms: C_11  and  C_12
REMARK    4  A    between atoms: C_12  and  O_14
REMARK    5  A    between atoms: O_14  and  C_15
REMARK    6  A    between atoms: C_18  and  C_19
REMARK                            x       y       z     vdW  Elec       q    Type
REMARK                         _______ _______ _______ _____ _____    ______ ____
ROOT
ATOM      1  C   UNL     1      -7.895  14.485  68.049  0.00  0.00    +0.073 C 
ATOM      2  C   UNL     1      -9.354  14.409  68.760  0.00  0.00    +0.083 C 
ATOM      3  C   UNL     1      -9.754  15.951  68.464  0.00  0.00    +0.073 C 
ATOM      4  C   UNL     1      -8.818  16.842  68.734  0.00  0.00    +0.051 C 
ATOM      5  C   UNL     1      -9.211  18.271  68.521  0.00  0.00    +0.049 C 
ATOM      6  N   UNL     1      -7.470  16.539  69.030  0.00  0.00    -0.221 NA
ATOM      7  C   UNL     1      -7.066  15.205  68.811  0.00  0.00    +0.051 C 
ATOM      8  C   UNL     1      -5.783  14.707  69.347  0.00  0.00    +0.049 C 
ENDROOT
BRANCH   2   9
ATOM      9  C   UNL     1     -10.063  13.864  67.418  0.00  0.00    +0.009 A 
ATOM     10  C   UNL     1     -10.751  12.709  67.482  0.00  0.00    +0.140 A 
ATOM     11  C   UNL     1     -11.308  12.172  66.328  0.00  0.00    +0.143 A 
ATOM     12  N   UNL     1     -11.629  10.912  66.724  0.00  0.00    -0.048 NA
ATOM     13  O   UNL     1     -11.724  10.867  68.024  0.00  0.00    -0.242 OA
ATOM     14  C   UNL     1     -10.644  12.517  65.155  0.00  0.00    +0.024 A 
ATOM     15  C   UNL     1     -10.121  13.803  65.095  0.00  0.00    +0.001 A 
ATOM     16  N   UNL     1     -11.225  11.959  68.478  0.00  0.00    -0.049 NA
ATOM     17  C   UNL     1      -9.652  14.430  66.246  0.00  0.00    -0.002 A 
ENDBRANCH   2   9
BRANCH   1  18
ATOM     18  C   UNL     1      -7.386  13.124  67.790  0.00  0.00    +0.339 C 
ATOM     19  O   UNL     1      -6.377  12.962  67.034  0.00  0.00    -0.245 OA
BRANCH  18  21
ATOM     20  C   UNL     1      -7.718  10.836  68.597  0.00  0.00    +0.256 C 
ATOM     21  O   UNL     1      -7.463  12.176  68.819  0.00  0.00    -0.442 OA
ENDBRANCH  18  21
ENDBRANCH   1  18
BRANCH   3  22
ATOM     22  C   UNL     1     -11.041  16.217  69.136  0.00  0.00    +0.339 C 
ATOM     23  O   UNL     1     -12.048  16.667  68.529  0.00  0.00    -0.245 OA
BRANCH  22  24
ATOM     24  O   UNL     1     -11.141  16.254  70.530  0.00  0.00    -0.449 OA
BRANCH  24  25
ATOM     25  C   UNL     1     -12.298  15.794  71.226  0.00  0.00    +0.169 C 
ATOM     26  C   UNL     1     -12.232  14.274  71.111  0.00  0.00    +0.047 C 
ATOM     27  C   UNL     1     -12.073  16.148  72.689  0.00  0.00    +0.047 C 
ENDBRANCH  24  25
ENDBRANCH  22  24
ENDBRANCH   3  22
TORSDOF 6
ENDMDL
