MODEL 1
REMARK VINA RESULT:      -7.4      0.000      0.000
REMARK  Name = 
REMARK  11 active torsions:
REMARK  status: ('A' for Active; 'I' for Inactive)
REMARK    1  A    between atoms: C_2  and  C_3
REMARK    2  A    between atoms: C_13  and  O_14
REMARK    3  A    between atoms: O_14  and  C_15
REMARK    4  A    between atoms: C_20  and  N_21
REMARK    5  A    between atoms: C_26  and  O_28
REMARK    6  A    between atoms: N_38  and  C_39
REMARK    7  A    between atoms: C_39  and  C_40
REMARK    8  A    between atoms: C_40  and  C_41
REMARK    9  A    between atoms: C_41  and  C_42
REMARK   10  A    between atoms: C_42  and  N_43
REMARK   11  A    between atoms: C_46  and  C_47
REMARK                            x       y       z     vdW  Elec       q    Type
REMARK                         _______ _______ _______ _____ _____    ______ ____
ROOT
ATOM      1  C   UNL     1      -9.614  11.321  65.536  0.00  0.00    +0.207 C 
ATOM      2  C   UNL     1     -10.713  11.636  66.689  0.00  0.00    +0.191 C 
ATOM      3  C   UNL     1     -10.030  12.626  67.782  0.00  0.00    +0.125 C 
ATOM      4  N   UNL     1     -10.349  13.950  67.008  0.00  0.00    -0.244 N 
ATOM      5  C   UNL     1     -10.503  13.511  65.671  0.00  0.00    +0.405 C 
ATOM      6  O   UNL     1     -10.107  14.196  64.674  0.00  0.00    -0.226 OA
ATOM      7  C   UNL     1      -8.407  12.498  67.270  0.00  0.00    +0.079 C 
ATOM      8  C   UNL     1      -7.999  14.017  67.693  0.00  0.00    +0.010 C 
ATOM      9  C   UNL     1      -7.846  11.885  68.638  0.00  0.00    +0.152 C 
ATOM     10  O   UNL     1      -6.735  12.238  68.892  0.00  0.00    -0.296 OA
ATOM     11  C   UNL     1      -8.157  10.313  68.768  0.00  0.00    +0.060 C 
ATOM     12  C   UNL     1      -7.187  10.113  70.069  0.00  0.00    +0.008 C 
ATOM     13  C   UNL     1      -6.951   9.873  67.762  0.00  0.00    +0.037 C 
ATOM     14  C   UNL     1      -6.879   8.391  67.700  0.00  0.00    +0.119 C 
ATOM     15  C   UNL     1      -5.379   8.105  67.831  0.00  0.00    +0.032 C 
ATOM     16  C   UNL     1      -7.329   7.864  66.220  0.00  0.00    +0.149 C 
ATOM     17  C   UNL     1      -5.942   8.603  65.502  0.00  0.00    +0.088 C 
ATOM     18  C   UNL     1      -6.070   7.862  64.064  0.00  0.00    +0.010 C 
ATOM     19  C   UNL     1      -6.608   9.951  65.115  0.00  0.00    +0.163 C 
ATOM     20  O   UNL     1      -5.695  10.784  65.027  0.00  0.00    -0.295 OA
ATOM     21  C   UNL     1      -7.680  10.451  64.074  0.00  0.00    +0.156 C 
ATOM     22  C   UNL     1      -7.154   9.665  62.722  0.00  0.00    +0.020 C 
ATOM     23  C   UNL     1      -8.828   9.400  64.493  0.00  0.00    +0.324 C 
ATOM     24  O   UNL     1      -8.959   8.355  63.824  0.00  0.00    -0.250 OA
ATOM     25  C   UNL     1     -11.304  10.487  67.281  0.00  0.00    +0.049 C 
ATOM     26  O   UNL     1     -11.484  12.543  65.931  0.00  0.00    -0.436 OA
ATOM     27  O   UNL     1      -9.571   9.778  65.619  0.00  0.00    -0.448 OA
ENDROOT
BRANCH  14  28
ATOM     28  O   UNL     1      -7.598   7.701  68.646  0.00  0.00    -0.353 OA
ATOM     29  C   UNL     1      -6.692   6.998  69.451  0.00  0.00    +0.174 C 
ENDBRANCH  14  28
BRANCH   1  31
ATOM     30  C   UNL     1     -10.418  11.417  63.473  0.00  0.00    +0.004 C 
ATOM     31  C   UNL     1     -10.792  11.165  64.375  0.00  0.00    +0.047 C 
ENDBRANCH   1  31
BRANCH  16  32
ATOM     32  O   UNL     1      -6.595   6.582  66.409  0.00  0.00    -0.328 OA
BRANCH  32  33
ATOM     33  C   UNL     1      -7.398   5.484  65.730  0.00  0.00    +0.268 C 
ATOM     34  C   UNL     1      -7.116   4.367  67.010  0.00  0.00    +0.222 C 
ATOM     35  O   UNL     1      -6.049   3.683  66.193  0.00  0.00    -0.216 OA
ATOM     36  C   UNL     1      -8.329   3.271  66.550  0.00  0.00    +0.096 C 
ATOM     37  C   UNL     1      -9.433   4.215  67.277  0.00  0.00    +0.048 C 
ATOM     38  C   UNL     1      -9.775   5.208  66.020  0.00  0.00    +0.119 C 
ATOM     39  C   UNL     1     -10.727   6.087  67.066  0.00  0.00    +0.032 C 
ATOM     40  O   UNL     1      -8.630   6.112  66.355  0.00  0.00    -0.331 OA
BRANCH  36  41
ATOM     41  N   UNL     1      -8.173   2.401  67.831  0.00  0.00    -0.269 NA
ATOM     42  C   UNL     1      -9.426   2.508  68.588  0.00  0.00    +0.090 C 
ATOM     43  C   UNL     1      -7.919   1.037  67.542  0.00  0.00    +0.090 C 
ENDBRANCH  36  41
ENDBRANCH  32  33
ENDBRANCH  16  32
BRANCH   4  44
ATOM     44  C   UNL     1     -10.342  15.292  67.566  0.00  0.00    +0.097 C 
BRANCH  44  45
ATOM     45  C   UNL     1     -11.582  15.582  68.429  0.00  0.00    +0.024 C 
BRANCH  45  46
ATOM     46  C   UNL     1     -11.321  15.175  69.798  0.00  0.00    +0.026 C 
BRANCH  46  47
ATOM     47  C   UNL     1     -12.245  15.496  70.896  0.00  0.00    +0.108 C 
BRANCH  47  48
ATOM     48  N   UNL     1     -12.440  14.210  71.575  0.00  0.00    -0.308 N 
ATOM     49  C   UNL     1     -12.457  13.059  70.850  0.00  0.00    +0.096 A 
ATOM     50  C   UNL     1     -13.090  12.067  71.593  0.00  0.00    +0.102 A 
ATOM     51  N   UNL     1     -13.616  12.755  72.637  0.00  0.00    -0.224 NA
ATOM     52  C   UNL     1     -13.530  14.088  72.385  0.00  0.00    +0.179 A 
BRANCH  50  53
ATOM     53  C   UNL     1     -12.699  10.666  71.510  0.00  0.00    +0.038 A 
ATOM     54  C   UNL     1     -13.509   9.625  71.952  0.00  0.00    +0.100 A 
ATOM     55  N   UNL     1     -12.837   8.520  72.365  0.00  0.00    -0.242 NA
ATOM     56  C   UNL     1     -11.491   8.430  72.205  0.00  0.00    +0.099 A 
ATOM     57  C   UNL     1     -10.803   9.309  71.369  0.00  0.00    +0.021 A 
ATOM     58  C   UNL     1     -11.636  10.223  70.719  0.00  0.00    +0.005 A 
ENDBRANCH  50  53
ENDBRANCH  47  48
ENDBRANCH  46  47
ENDBRANCH  45  46
ENDBRANCH  44  45
ENDBRANCH   4  44
TORSDOF 11
ENDMDL
MODEL 2
REMARK VINA RESULT:      -7.0      2.663      5.253
REMARK  Name = 
REMARK  11 active torsions:
REMARK  status: ('A' for Active; 'I' for Inactive)
REMARK    1  A    between atoms: C_2  and  C_3
REMARK    2  A    between atoms: C_13  and  O_14
REMARK    3  A    between atoms: O_14  and  C_15
REMARK    4  A    between atoms: C_20  and  N_21
REMARK    5  A    between atoms: C_26  and  O_28
REMARK    6  A    between atoms: N_38  and  C_39
REMARK    7  A    between atoms: C_39  and  C_40
REMARK    8  A    between atoms: C_40  and  C_41
REMARK    9  A    between atoms: C_41  and  C_42
REMARK   10  A    between atoms: C_42  and  N_43
REMARK   11  A    between atoms: C_46  and  C_47
REMARK                            x       y       z     vdW  Elec       q    Type
REMARK                         _______ _______ _______ _____ _____    ______ ____
ROOT
ATOM      1  C   UNL     1      -8.578   8.572  67.777  0.00  0.00    +0.207 C 
ATOM      2  C   UNL     1      -9.981   8.412  66.977  0.00  0.00    +0.191 C 
ATOM      3  C   UNL     1     -10.993   9.575  67.494  0.00  0.00    +0.125 C 
ATOM      4  N   UNL     1     -10.471  10.678  66.512  0.00  0.00    -0.244 N 
ATOM      5  C   UNL     1      -9.164  10.234  66.196  0.00  0.00    +0.405 C 
ATOM      6  O   UNL     1      -8.188  11.034  66.034  0.00  0.00    -0.226 OA
ATOM      7  C   UNL     1     -10.109  10.102  68.855  0.00  0.00    +0.079 C 
ATOM      8  C   UNL     1     -10.597  11.653  68.756  0.00  0.00    +0.010 C 
ATOM      9  C   UNL     1     -11.230   9.739  69.937  0.00  0.00    +0.152 C 
ATOM     10  O   UNL     1     -11.260  10.496  70.858  0.00  0.00    -0.296 OA
ATOM     11  C   UNL     1     -11.248   8.170  70.285  0.00  0.00    +0.060 C 
ATOM     12  C   UNL     1     -12.258   8.347  71.559  0.00  0.00    +0.008 C 
ATOM     13  C   UNL     1      -9.946   8.254  71.265  0.00  0.00    +0.037 C 
ATOM     14  C   UNL     1      -9.700   6.921  71.871  0.00  0.00    +0.119 C 
ATOM     15  C   UNL     1      -9.447   7.245  73.347  0.00  0.00    +0.032 C 
ATOM     16  C   UNL     1      -8.313   6.281  71.288  0.00  0.00    +0.149 C 
ATOM     17  C   UNL     1      -7.384   7.517  72.059  0.00  0.00    +0.088 C 
ATOM     18  C   UNL     1      -5.940   6.807  71.854  0.00  0.00    +0.010 C 
ATOM     19  C   UNL     1      -7.319   8.501  70.859  0.00  0.00    +0.163 C 
ATOM     20  O   UNL     1      -7.118   9.626  71.335  0.00  0.00    -0.295 OA
ATOM     21  C   UNL     1      -6.618   8.554  69.449  0.00  0.00    +0.156 C 
ATOM     22  C   UNL     1      -5.100   8.058  69.864  0.00  0.00    +0.020 C 
ATOM     23  C   UNL     1      -7.168   7.130  68.931  0.00  0.00    +0.324 C 
ATOM     24  O   UNL     1      -6.432   6.127  69.035  0.00  0.00    -0.250 OA
ATOM     25  C   UNL     1     -10.559   7.114  67.036  0.00  0.00    +0.049 C 
ATOM     26  O   UNL     1      -9.532   8.954  65.755  0.00  0.00    -0.436 OA
ATOM     27  O   UNL     1      -8.471   7.169  68.417  0.00  0.00    -0.448 OA
ENDROOT
BRANCH  14  28
ATOM     28  O   UNL     1     -10.701   5.989  71.734  0.00  0.00    -0.353 OA
ATOM     29  C   UNL     1     -11.140   5.634  73.017  0.00  0.00    +0.174 C 
ENDBRANCH  14  28
BRANCH   1  31
ATOM     30  C   UNL     1      -6.777   8.364  66.501  0.00  0.00    +0.004 C 
ATOM     31  C   UNL     1      -7.710   7.982  66.488  0.00  0.00    +0.047 C 
ENDBRANCH   1  31
BRANCH  16  32
ATOM     32  O   UNL     1      -8.180   5.388  72.472  0.00  0.00    -0.328 OA
BRANCH  32  33
ATOM     33  C   UNL     1      -7.553   4.086  72.001  0.00  0.00    +0.268 C 
ATOM     34  C   UNL     1      -8.681   3.125  72.877  0.00  0.00    +0.222 C 
ATOM     35  O   UNL     1      -7.656   2.885  73.957  0.00  0.00    -0.216 OA
ATOM     36  C   UNL     1      -8.334   1.673  72.068  0.00  0.00    +0.096 C 
ATOM     37  C   UNL     1      -9.297   2.145  70.848  0.00  0.00    +0.048 C 
ATOM     38  C   UNL     1      -8.190   2.968  69.964  0.00  0.00    +0.119 C 
ATOM     39  C   UNL     1      -9.438   3.427  68.962  0.00  0.00    +0.032 C 
ATOM     40  O   UNL     1      -8.410   4.218  70.757  0.00  0.00    -0.331 OA
BRANCH  36  41
ATOM     41  N   UNL     1      -9.503   0.897  72.741  0.00  0.00    -0.269 NA
ATOM     42  C   UNL     1     -10.445   0.518  71.682  0.00  0.00    +0.090 C 
ATOM     43  C   UNL     1      -9.069  -0.270  73.419  0.00  0.00    +0.090 C 
ENDBRANCH  36  41
ENDBRANCH  32  33
ENDBRANCH  16  32
BRANCH   4  44
ATOM     44  C   UNL     1     -11.162  11.906  66.158  0.00  0.00    +0.097 C 
BRANCH  44  45
ATOM     45  C   UNL     1     -10.365  12.769  65.165  0.00  0.00    +0.024 C 
BRANCH  45  46
ATOM     46  C   UNL     1      -9.952  13.997  65.819  0.00  0.00    +0.026 C 
BRANCH  46  47
ATOM     47  C   UNL     1     -10.844  15.161  65.926  0.00  0.00    +0.108 C 
BRANCH  47  48
ATOM     48  N   UNL     1     -10.801  15.504  67.351  0.00  0.00    -0.308 N 
ATOM     49  C   UNL     1     -11.755  15.022  68.192  0.00  0.00    +0.096 A 
ATOM     50  C   UNL     1     -11.789  15.812  69.338  0.00  0.00    +0.102 A 
ATOM     51  N   UNL     1     -10.995  16.862  69.009  0.00  0.00    -0.224 NA
ATOM     52  C   UNL     1     -10.735  16.828  67.676  0.00  0.00    +0.179 A 
BRANCH  50  53
ATOM     53  C   UNL     1     -12.100  15.261  70.651  0.00  0.00    +0.038 A 
ATOM     54  C   UNL     1     -12.464  13.933  70.848  0.00  0.00    +0.100 A 
ATOM     55  N   UNL     1     -13.268  13.718  71.921  0.00  0.00    -0.242 NA
ATOM     56  C   UNL     1     -13.548  14.728  72.786  0.00  0.00    +0.099 A 
ATOM     57  C   UNL     1     -12.811  15.911  72.778  0.00  0.00    +0.021 A 
ATOM     58  C   UNL     1     -11.775  15.913  71.842  0.00  0.00    +0.005 A 
ENDBRANCH  50  53
ENDBRANCH  47  48
ENDBRANCH  46  47
ENDBRANCH  45  46
ENDBRANCH  44  45
ENDBRANCH   4  44
TORSDOF 11
ENDMDL
MODEL 3
REMARK VINA RESULT:      -6.7      2.504      5.332
REMARK  Name = 
REMARK  11 active torsions:
REMARK  status: ('A' for Active; 'I' for Inactive)
REMARK    1  A    between atoms: C_2  and  C_3
REMARK    2  A    between atoms: C_13  and  O_14
REMARK    3  A    between atoms: O_14  and  C_15
REMARK    4  A    between atoms: C_20  and  N_21
REMARK    5  A    between atoms: C_26  and  O_28
REMARK    6  A    between atoms: N_38  and  C_39
REMARK    7  A    between atoms: C_39  and  C_40
REMARK    8  A    between atoms: C_40  and  C_41
REMARK    9  A    between atoms: C_41  and  C_42
REMARK   10  A    between atoms: C_42  and  N_43
REMARK   11  A    between atoms: C_46  and  C_47
REMARK                            x       y       z     vdW  Elec       q    Type
REMARK                         _______ _______ _______ _____ _____    ______ ____
ROOT
ATOM      1  C   UNL     1      -9.844   9.664  68.529  0.00  0.00    +0.207 C 
ATOM      2  C   UNL     1      -8.896  10.942  68.205  0.00  0.00    +0.191 C 
ATOM      3  C   UNL     1      -8.720  11.045  66.593  0.00  0.00    +0.125 C 
ATOM      4  N   UNL     1     -10.034  11.861  66.348  0.00  0.00    -0.244 N 
ATOM      5  C   UNL     1     -10.821  11.550  67.483  0.00  0.00    +0.405 C 
ATOM      6  O   UNL     1     -12.083  11.400  67.424  0.00  0.00    -0.226 OA
ATOM      7  C   UNL     1      -9.362   9.524  66.163  0.00  0.00    +0.079 C 
ATOM      8  C   UNL     1      -9.971  10.019  64.736  0.00  0.00    +0.010 C 
ATOM      9  C   UNL     1      -8.025   8.962  65.485  0.00  0.00    +0.152 C 
ATOM     10  O   UNL     1      -8.235   8.243  64.556  0.00  0.00    -0.296 OA
ATOM     11  C   UNL     1      -6.964   8.448  66.576  0.00  0.00    +0.060 C 
ATOM     12  C   UNL     1      -5.994   7.738  65.467  0.00  0.00    +0.008 C 
ATOM     13  C   UNL     1      -7.743   7.040  66.842  0.00  0.00    +0.037 C 
ATOM     14  C   UNL     1      -6.958   6.217  67.797  0.00  0.00    +0.119 C 
ATOM     15  C   UNL     1      -6.973   4.824  67.158  0.00  0.00    +0.032 C 
ATOM     16  C   UNL     1      -7.752   6.087  69.219  0.00  0.00    +0.149 C 
ATOM     17  C   UNL     1      -9.010   5.172  68.468  0.00  0.00    +0.088 C 
ATOM     18  C   UNL     1      -9.709   4.669  69.843  0.00  0.00    +0.010 C 
ATOM     19  C   UNL     1      -9.965   6.357  68.156  0.00  0.00    +0.163 C 
ATOM     20  O   UNL     1     -10.684   5.993  67.216  0.00  0.00    -0.295 OA
ATOM     21  C   UNL     1     -10.878   7.347  68.973  0.00  0.00    +0.156 C 
ATOM     22  C   UNL     1     -11.607   6.282  70.001  0.00  0.00    +0.020 C 
ATOM     23  C   UNL     1      -9.725   7.853  69.979  0.00  0.00    +0.324 C 
ATOM     24  O   UNL     1      -9.636   7.324  71.106  0.00  0.00    -0.250 OA
ATOM     25  C   UNL     1      -7.654  10.956  68.896  0.00  0.00    +0.049 C 
ATOM     26  O   UNL     1      -9.874  11.930  68.445  0.00  0.00    -0.436 OA
ATOM     27  O   UNL     1      -8.903   8.858  69.453  0.00  0.00    -0.448 OA
ENDROOT
BRANCH  14  28
ATOM     28  O   UNL     1      -5.672   6.629  68.051  0.00  0.00    -0.353 OA
ATOM     29  C   UNL     1      -4.798   5.636  67.588  0.00  0.00    +0.174 C 
ENDBRANCH  14  28
BRANCH   1  31
ATOM     30  C   UNL     1     -11.396  10.061  70.060  0.00  0.00    +0.004 C 
ATOM     31  C   UNL     1     -10.458  10.391  69.891  0.00  0.00    +0.047 C 
ENDBRANCH   1  31
BRANCH  16  32
ATOM     32  O   UNL     1      -7.006   4.847  69.570  0.00  0.00    -0.328 OA
BRANCH  32  33
ATOM     33  C   UNL     1      -6.795   4.843  71.075  0.00  0.00    +0.268 C 
ATOM     34  C   UNL     1      -5.125   4.451  70.926  0.00  0.00    +0.222 C 
ATOM     35  O   UNL     1      -5.421   3.011  71.261  0.00  0.00    -0.216 OA
ATOM     36  C   UNL     1      -4.712   4.855  72.523  0.00  0.00    +0.096 C 
ATOM     37  C   UNL     1      -4.644   6.420  72.090  0.00  0.00    +0.048 C 
ATOM     38  C   UNL     1      -6.215   6.812  72.337  0.00  0.00    +0.119 C 
ATOM     39  C   UNL     1      -5.869   8.306  71.688  0.00  0.00    +0.032 C 
ATOM     40  O   UNL     1      -6.601   6.344  70.969  0.00  0.00    -0.331 OA
BRANCH  36  41
ATOM     41  N   UNL     1      -3.184   4.683  72.282  0.00  0.00    -0.269 NA
ATOM     42  C   UNL     1      -2.563   6.003  72.442  0.00  0.00    +0.090 C 
ATOM     43  C   UNL     1      -2.584   3.772  73.188  0.00  0.00    +0.090 C 
ENDBRANCH  36  41
ENDBRANCH  32  33
ENDBRANCH  16  32
BRANCH   4  44
ATOM     44  C   UNL     1     -10.358  12.627  65.156  0.00  0.00    +0.097 C 
BRANCH  44  45
ATOM     45  C   UNL     1     -11.824  13.093  65.132  0.00  0.00    +0.024 C 
BRANCH  45  46
ATOM     46  C   UNL     1     -11.907  14.444  65.658  0.00  0.00    +0.026 C 
BRANCH  46  47
ATOM     47  C   UNL     1     -10.708  15.261  65.900  0.00  0.00    +0.108 C 
BRANCH  47  48
ATOM     48  N   UNL     1     -10.744  15.514  67.344  0.00  0.00    -0.308 N 
ATOM     49  C   UNL     1     -11.762  15.011  68.094  0.00  0.00    +0.096 A 
ATOM     50  C   UNL     1     -11.845  15.728  69.284  0.00  0.00    +0.102 A 
ATOM     51  N   UNL     1     -11.005  16.772  69.071  0.00  0.00    -0.224 NA
ATOM     52  C   UNL     1     -10.663  16.812  67.755  0.00  0.00    +0.179 A 
BRANCH  50  53
ATOM     53  C   UNL     1     -12.252  15.107  70.537  0.00  0.00    +0.038 A 
ATOM     54  C   UNL     1     -12.237  13.732  70.741  0.00  0.00    +0.100 A 
ATOM     55  N   UNL     1     -13.151  13.281  71.639  0.00  0.00    -0.242 NA
ATOM     56  C   UNL     1     -13.897  14.156  72.362  0.00  0.00    +0.099 A 
ATOM     57  C   UNL     1     -13.563  15.507  72.428  0.00  0.00    +0.021 A 
ATOM     58  C   UNL     1     -12.398  15.826  71.726  0.00  0.00    +0.005 A 
ENDBRANCH  50  53
ENDBRANCH  47  48
ENDBRANCH  46  47
ENDBRANCH  45  46
ENDBRANCH  44  45
ENDBRANCH   4  44
TORSDOF 11
ENDMDL
MODEL 4
REMARK VINA RESULT:      -6.7      2.891      6.189
REMARK  Name = 
REMARK  11 active torsions:
REMARK  status: ('A' for Active; 'I' for Inactive)
REMARK    1  A    between atoms: C_2  and  C_3
REMARK    2  A    between atoms: C_13  and  O_14
REMARK    3  A    between atoms: O_14  and  C_15
REMARK    4  A    between atoms: C_20  and  N_21
REMARK    5  A    between atoms: C_26  and  O_28
REMARK    6  A    between atoms: N_38  and  C_39
REMARK    7  A    between atoms: C_39  and  C_40
REMARK    8  A    between atoms: C_40  and  C_41
REMARK    9  A    between atoms: C_41  and  C_42
REMARK   10  A    between atoms: C_42  and  N_43
REMARK   11  A    between atoms: C_46  and  C_47
REMARK                            x       y       z     vdW  Elec       q    Type
REMARK                         _______ _______ _______ _____ _____    ______ ____
ROOT
ATOM      1  C   UNL     1      -7.740   8.310  67.349  0.00  0.00    +0.207 C 
ATOM      2  C   UNL     1      -9.036   8.099  66.394  0.00  0.00    +0.191 C 
ATOM      3  C   UNL     1      -9.956   9.436  66.487  0.00  0.00    +0.125 C 
ATOM      4  N   UNL     1      -9.178  10.233  65.386  0.00  0.00    -0.244 N 
ATOM      5  C   UNL     1      -7.905   9.612  65.379  0.00  0.00    +0.405 C 
ATOM      6  O   UNL     1      -6.825  10.261  65.204  0.00  0.00    -0.226 OA
ATOM      7  C   UNL     1      -9.200  10.178  67.825  0.00  0.00    +0.079 C 
ATOM      8  C   UNL     1      -9.476  11.703  67.323  0.00  0.00    +0.010 C 
ATOM      9  C   UNL     1     -10.490  10.175  68.771  0.00  0.00    +0.152 C 
ATOM     10  O   UNL     1     -10.547  11.123  69.494  0.00  0.00    -0.296 OA
ATOM     11  C   UNL     1     -10.746   8.736  69.439  0.00  0.00    +0.060 C 
ATOM     12  C   UNL     1     -11.886   9.291  70.473  0.00  0.00    +0.008 C 
ATOM     13  C   UNL     1      -9.585   8.924  70.568  0.00  0.00    +0.037 C 
ATOM     14  C   UNL     1      -9.586   7.748  71.475  0.00  0.00    +0.119 C 
ATOM     15  C   UNL     1      -9.492   8.376  72.869  0.00  0.00    +0.032 C 
ATOM     16  C   UNL     1      -8.224   6.868  71.265  0.00  0.00    +0.149 C 
ATOM     17  C   UNL     1      -7.260   8.158  71.890  0.00  0.00    +0.088 C 
ATOM     18  C   UNL     1      -5.899   7.292  72.068  0.00  0.00    +0.010 C 
ATOM     19  C   UNL     1      -6.916   8.831  70.534  0.00  0.00    +0.163 C 
ATOM     20  O   UNL     1      -6.643  10.013  70.784  0.00  0.00    -0.295 OA
ATOM     21  C   UNL     1      -6.035   8.497  69.271  0.00  0.00    +0.156 C 
ATOM     22  C   UNL     1      -4.658   7.974  70.014  0.00  0.00    +0.020 C 
ATOM     23  C   UNL     1      -6.683   7.048  68.989  0.00  0.00    +0.324 C 
ATOM     24  O   UNL     1      -6.097   6.033  69.418  0.00  0.00    -0.250 OA
ATOM     25  C   UNL     1      -9.771   6.907  66.637  0.00  0.00    +0.049 C 
ATOM     26  O   UNL     1      -8.366   8.304  65.169  0.00  0.00    -0.436 OA
ATOM     27  O   UNL     1      -7.893   7.086  68.282  0.00  0.00    -0.448 OA
ENDROOT
BRANCH  14  28
ATOM     28  O   UNL     1     -10.668   6.904  71.387  0.00  0.00    -0.353 OA
ATOM     29  C   UNL     1     -11.330   6.917  72.622  0.00  0.00    +0.174 C 
ENDBRANCH  14  28
BRANCH   1  31
ATOM     30  C   UNL     1      -5.828   7.658  66.438  0.00  0.00    +0.004 C 
ATOM     31  C   UNL     1      -6.790   7.365  66.367  0.00  0.00    +0.047 C 
ENDBRANCH   1  31
BRANCH  16  32
ATOM     32  O   UNL     1      -8.358   6.262  72.618  0.00  0.00    -0.328 OA
BRANCH  32  33
ATOM     33  C   UNL     1      -7.835   4.837  72.541  0.00  0.00    +0.268 C 
ATOM     34  C   UNL     1      -9.132   4.217  73.488  0.00  0.00    +0.222 C 
ATOM     35  O   UNL     1      -8.237   4.165  74.701  0.00  0.00    -0.216 OA
ATOM     36  C   UNL     1      -8.872   2.587  73.088  0.00  0.00    +0.096 C 
ATOM     37  C   UNL     1      -9.669   2.822  71.692  0.00  0.00    +0.048 C 
ATOM     38  C   UNL     1      -8.408   3.309  70.767  0.00  0.00    +0.119 C 
ATOM     39  C   UNL     1      -9.507   3.609  69.553  0.00  0.00    +0.032 C 
ATOM     40  O   UNL     1      -8.562   4.729  71.214  0.00  0.00    -0.331 OA
BRANCH  36  41
ATOM     41  N   UNL     1     -10.171   2.099  73.792  0.00  0.00    -0.269 NA
ATOM     42  C   UNL     1     -11.023   1.486  72.765  0.00  0.00    +0.090 C 
ATOM     43  C   UNL     1      -9.919   1.151  74.815  0.00  0.00    +0.090 C 
ENDBRANCH  36  41
ENDBRANCH  32  33
ENDBRANCH  16  32
BRANCH   4  44
ATOM     44  C   UNL     1      -9.659  11.405  64.675  0.00  0.00    +0.097 C 
BRANCH  44  45
ATOM     45  C   UNL     1     -10.764  11.069  63.658  0.00  0.00    +0.024 C 
BRANCH  45  46
ATOM     46  C   UNL     1     -11.938  11.875  63.941  0.00  0.00    +0.026 C 
BRANCH  46  47
ATOM     47  C   UNL     1     -12.076  13.252  63.442  0.00  0.00    +0.108 C 
BRANCH  47  48
ATOM     48  N   UNL     1     -12.091  14.065  64.663  0.00  0.00    -0.308 N 
ATOM     49  C   UNL     1     -10.986  14.775  65.016  0.00  0.00    +0.096 A 
ATOM     50  C   UNL     1     -11.056  15.077  66.373  0.00  0.00    +0.102 A 
ATOM     51  N   UNL     1     -12.103  14.327  66.799  0.00  0.00    -0.224 NA
ATOM     52  C   UNL     1     -12.450  13.445  65.824  0.00  0.00    +0.179 A 
BRANCH  50  53
ATOM     53  C   UNL     1     -10.521  16.316  66.921  0.00  0.00    +0.038 A 
ATOM     54  C   UNL     1     -10.601  16.645  68.270  0.00  0.00    +0.100 A 
ATOM     55  N   UNL     1     -10.630  17.978  68.529  0.00  0.00    -0.242 NA
ATOM     56  C   UNL     1     -10.447  18.879  67.529  0.00  0.00    +0.099 A 
ATOM     57  C   UNL     1      -9.943  18.489  66.289  0.00  0.00    +0.021 A 
ATOM     58  C   UNL     1      -9.627  17.130  66.221  0.00  0.00    +0.005 A 
ENDBRANCH  50  53
ENDBRANCH  47  48
ENDBRANCH  46  47
ENDBRANCH  45  46
ENDBRANCH  44  45
ENDBRANCH   4  44
TORSDOF 11
ENDMDL
MODEL 5
REMARK VINA RESULT:      -6.6      3.439      6.385
REMARK  Name = 
REMARK  11 active torsions:
REMARK  status: ('A' for Active; 'I' for Inactive)
REMARK    1  A    between atoms: C_2  and  C_3
REMARK    2  A    between atoms: C_13  and  O_14
REMARK    3  A    between atoms: O_14  and  C_15
REMARK    4  A    between atoms: C_20  and  N_21
REMARK    5  A    between atoms: C_26  and  O_28
REMARK    6  A    between atoms: N_38  and  C_39
REMARK    7  A    between atoms: C_39  and  C_40
REMARK    8  A    between atoms: C_40  and  C_41
REMARK    9  A    between atoms: C_41  and  C_42
REMARK   10  A    between atoms: C_42  and  N_43
REMARK   11  A    between atoms: C_46  and  C_47
REMARK                            x       y       z     vdW  Elec       q    Type
REMARK                         _______ _______ _______ _____ _____    ______ ____
ROOT
ATOM      1  C   UNL     1      -8.443   8.351  69.808  0.00  0.00    +0.207 C 
ATOM      2  C   UNL     1      -9.502   8.039  68.618  0.00  0.00    +0.191 C 
ATOM      3  C   UNL     1     -10.926   8.713  69.019  0.00  0.00    +0.125 C 
ATOM      4  N   UNL     1     -10.588  10.132  68.450  0.00  0.00    -0.244 N 
ATOM      5  C   UNL     1      -9.172  10.151  68.454  0.00  0.00    +0.405 C 
ATOM      6  O   UNL     1      -8.500  11.195  68.732  0.00  0.00    -0.226 OA
ATOM      7  C   UNL     1     -10.589   9.081  70.651  0.00  0.00    +0.079 C 
ATOM      8  C   UNL     1     -11.521  10.415  70.697  0.00  0.00    +0.010 C 
ATOM      9  C   UNL     1     -11.742   8.161  71.273  0.00  0.00    +0.152 C 
ATOM     10  O   UNL     1     -12.221   8.615  72.267  0.00  0.00    -0.296 OA
ATOM     11  C   UNL     1     -11.324   6.610  71.310  0.00  0.00    +0.060 C 
ATOM     12  C   UNL     1     -12.593   6.172  72.243  0.00  0.00    +0.008 C 
ATOM     13  C   UNL     1     -10.374   6.777  72.625  0.00  0.00    +0.037 C 
ATOM     14  C   UNL     1      -9.847   5.447  73.024  0.00  0.00    +0.119 C 
ATOM     15  C   UNL     1     -10.050   5.428  74.542  0.00  0.00    +0.032 C 
ATOM     16  C   UNL     1      -8.235   5.375  72.765  0.00  0.00    +0.149 C 
ATOM     17  C   UNL     1      -7.956   6.566  73.985  0.00  0.00    +0.088 C 
ATOM     18  C   UNL     1      -6.352   6.345  74.085  0.00  0.00    +0.010 C 
ATOM     19  C   UNL     1      -7.950   7.811  73.057  0.00  0.00    +0.163 C 
ATOM     20  O   UNL     1      -8.239   8.784  73.767  0.00  0.00    -0.295 OA
ATOM     21  C   UNL     1      -7.010   8.417  71.947  0.00  0.00    +0.156 C 
ATOM     22  C   UNL     1      -5.546   8.251  72.691  0.00  0.00    +0.020 C 
ATOM     23  C   UNL     1      -6.935   7.086  71.041  0.00  0.00    +0.324 C 
ATOM     24  O   UNL     1      -5.955   6.323  71.172  0.00  0.00    -0.250 OA
ATOM     25  C   UNL     1      -9.623   6.666  68.268  0.00  0.00    +0.049 C 
ATOM     26  O   UNL     1      -8.994   8.982  67.700  0.00  0.00    -0.436 OA
ATOM     27  O   UNL     1      -8.030   6.910  70.185  0.00  0.00    -0.448 OA
ENDROOT
BRANCH  14  28
ATOM     28  O   UNL     1     -10.433   4.352  72.434  0.00  0.00    -0.353 OA
ATOM     29  C   UNL     1     -11.079   3.614  73.435  0.00  0.00    +0.174 C 
ENDBRANCH  14  28
BRANCH   1  31
ATOM     30  C   UNL     1      -6.444   8.985  69.090  0.00  0.00    +0.004 C 
ATOM     31  C   UNL     1      -7.167   8.373  68.744  0.00  0.00    +0.047 C 
ENDBRANCH   1  31
BRANCH  16  32
ATOM     32  O   UNL     1      -8.085   4.272  73.754  0.00  0.00    -0.328 OA
BRANCH  32  33
ATOM     33  C   UNL     1      -7.039   3.309  73.217  0.00  0.00    +0.268 C 
ATOM     34  C   UNL     1      -8.041   1.935  73.483  0.00  0.00    +0.222 C 
ATOM     35  O   UNL     1      -7.274   1.604  74.739  0.00  0.00    -0.216 OA
ATOM     36  C   UNL     1      -7.137   0.872  72.516  0.00  0.00    +0.096 C 
ATOM     37  C   UNL     1      -7.875   1.472  71.199  0.00  0.00    +0.048 C 
ATOM     38  C   UNL     1      -6.854   2.715  70.889  0.00  0.00    +0.119 C 
ATOM     39  C   UNL     1      -7.906   3.186  69.687  0.00  0.00    +0.032 C 
ATOM     40  O   UNL     1      -7.582   3.618  71.835  0.00  0.00    -0.331 OA
BRANCH  36  41
ATOM     41  N   UNL     1      -8.179  -0.279  72.622  0.00  0.00    -0.269 NA
ATOM     42  C   UNL     1      -8.722  -0.505  71.278  0.00  0.00    +0.090 C 
ATOM     43  C   UNL     1      -7.616  -1.486  73.107  0.00  0.00    +0.090 C 
ENDBRANCH  36  41
ENDBRANCH  32  33
ENDBRANCH  16  32
BRANCH   4  44
ATOM     44  C   UNL     1     -11.545  11.181  68.138  0.00  0.00    +0.097 C 
BRANCH  44  45
ATOM     45  C   UNL     1     -11.341  11.771  66.732  0.00  0.00    +0.024 C 
BRANCH  45  46
ATOM     46  C   UNL     1     -11.588  13.201  66.770  0.00  0.00    +0.026 C 
BRANCH  46  47
ATOM     47  C   UNL     1     -10.493  14.182  66.744  0.00  0.00    +0.108 C 
BRANCH  47  48
ATOM     48  N   UNL     1     -10.689  14.956  67.975  0.00  0.00    -0.308 N 
ATOM     49  C   UNL     1     -11.763  14.700  68.770  0.00  0.00    +0.096 A 
ATOM     50  C   UNL     1     -11.994  15.805  69.586  0.00  0.00    +0.102 A 
ATOM     51  N   UNL     1     -11.172  16.749  69.063  0.00  0.00    -0.224 NA
ATOM     52  C   UNL     1     -10.695  16.315  67.866  0.00  0.00    +0.179 A 
BRANCH  50  53
ATOM     53  C   UNL     1     -12.510  15.673  70.942  0.00  0.00    +0.038 A 
ATOM     54  C   UNL     1     -11.926  16.298  72.038  0.00  0.00    +0.100 A 
ATOM     55  N   UNL     1     -12.101  15.651  73.220  0.00  0.00    -0.242 NA
ATOM     56  C   UNL     1     -12.911  14.563  73.297  0.00  0.00    +0.099 A 
ATOM     57  C   UNL     1     -13.800  14.251  72.271  0.00  0.00    +0.021 A 
ATOM     58  C   UNL     1     -13.784  15.173  71.222  0.00  0.00    +0.005 A 
ENDBRANCH  50  53
ENDBRANCH  47  48
ENDBRANCH  46  47
ENDBRANCH  45  46
ENDBRANCH  44  45
ENDBRANCH   4  44
TORSDOF 11
ENDMDL
MODEL 6
REMARK VINA RESULT:      -6.6      3.932      6.886
REMARK  Name = 
REMARK  11 active torsions:
REMARK  status: ('A' for Active; 'I' for Inactive)
REMARK    1  A    between atoms: C_2  and  C_3
REMARK    2  A    between atoms: C_13  and  O_14
REMARK    3  A    between atoms: O_14  and  C_15
REMARK    4  A    between atoms: C_20  and  N_21
REMARK    5  A    between atoms: C_26  and  O_28
REMARK    6  A    between atoms: N_38  and  C_39
REMARK    7  A    between atoms: C_39  and  C_40
REMARK    8  A    between atoms: C_40  and  C_41
REMARK    9  A    between atoms: C_41  and  C_42
REMARK   10  A    between atoms: C_42  and  N_43
REMARK   11  A    between atoms: C_46  and  C_47
REMARK                            x       y       z     vdW  Elec       q    Type
REMARK                         _______ _______ _______ _____ _____    ______ ____
ROOT
ATOM      1  C   UNL     1     -10.342  13.091  66.846  0.00  0.00    +0.207 C 
ATOM      2  C   UNL     1     -10.690  14.197  67.982  0.00  0.00    +0.191 C 
ATOM      3  C   UNL     1      -9.518  15.322  67.968  0.00  0.00    +0.125 C 
ATOM      4  N   UNL     1     -10.149  16.186  66.825  0.00  0.00    -0.244 N 
ATOM      5  C   UNL     1     -10.976  15.260  66.143  0.00  0.00    +0.405 C 
ATOM      6  O   UNL     1     -11.125  15.274  64.879  0.00  0.00    -0.226 OA
ATOM      7  C   UNL     1      -8.387  14.507  66.984  0.00  0.00    +0.079 C 
ATOM      8  C   UNL     1      -7.777  15.859  66.310  0.00  0.00    +0.010 C 
ATOM      9  C   UNL     1      -7.225  14.439  68.082  0.00  0.00    +0.152 C 
ATOM     10  O   UNL     1      -6.130  14.525  67.615  0.00  0.00    -0.296 OA
ATOM     11  C   UNL     1      -7.470  13.263  69.150  0.00  0.00    +0.060 C 
ATOM     12  C   UNL     1      -5.978  13.393  69.807  0.00  0.00    +0.008 C 
ATOM     13  C   UNL     1      -6.959  12.085  68.144  0.00  0.00    +0.037 C 
ATOM     14  C   UNL     1      -6.970  10.786  68.862  0.00  0.00    +0.119 C 
ATOM     15  C   UNL     1      -5.622  10.162  68.486  0.00  0.00    +0.032 C 
ATOM     16  C   UNL     1      -8.126   9.808  68.247  0.00  0.00    +0.149 C 
ATOM     17  C   UNL     1      -7.279   9.702  66.745  0.00  0.00    +0.088 C 
ATOM     18  C   UNL     1      -8.143   8.469  66.141  0.00  0.00    +0.010 C 
ATOM     19  C   UNL     1      -8.011  10.862  66.016  0.00  0.00    +0.163 C 
ATOM     20  O   UNL     1      -7.247  11.257  65.124  0.00  0.00    -0.295 OA
ATOM     21  C   UNL     1      -9.449  11.131  65.432  0.00  0.00    +0.156 C 
ATOM     22  C   UNL     1      -9.708   9.706  64.642  0.00  0.00    +0.020 C 
ATOM     23  C   UNL     1     -10.252  10.770  66.782  0.00  0.00    +0.324 C 
ATOM     24  O   UNL     1     -10.736   9.626  66.906  0.00  0.00    -0.250 OA
ATOM     25  C   UNL     1     -10.929  13.667  69.279  0.00  0.00    +0.049 C 
ATOM     26  O   UNL     1     -11.714  14.848  67.262  0.00  0.00    -0.436 OA
ATOM     27  O   UNL     1     -10.307  11.813  67.716  0.00  0.00    -0.448 OA
ENDROOT
BRANCH  14  28
ATOM     28  O   UNL     1      -7.126  10.839  70.227  0.00  0.00    -0.353 OA
ATOM     29  C   UNL     1      -5.953  10.349  70.816  0.00  0.00    +0.174 C 
ENDBRANCH  14  28
BRANCH   1  31
ATOM     30  C   UNL     1     -12.083  12.487  65.614  0.00  0.00    +0.004 C 
ATOM     31  C   UNL     1     -11.952  12.783  66.569  0.00  0.00    +0.047 C 
ENDBRANCH   1  31
BRANCH  16  32
ATOM     32  O   UNL     1      -7.435   8.596  68.766  0.00  0.00    -0.328 OA
BRANCH  32  33
ATOM     33  C   UNL     1      -8.503   7.606  69.203  0.00  0.00    +0.268 C 
ATOM     34  C   UNL     1      -7.779   7.374  70.748  0.00  0.00    +0.222 C 
ATOM     35  O   UNL     1      -7.179   6.071  70.284  0.00  0.00    -0.216 OA
ATOM     36  C   UNL     1      -9.129   6.629  71.460  0.00  0.00    +0.096 C 
ATOM     37  C   UNL     1      -9.784   8.095  71.706  0.00  0.00    +0.048 C 
ATOM     38  C   UNL     1     -10.561   8.262  70.273  0.00  0.00    +0.119 C 
ATOM     39  C   UNL     1     -10.951   9.810  70.746  0.00  0.00    +0.032 C 
ATOM     40  O   UNL     1      -9.334   8.807  69.612  0.00  0.00    -0.331 OA
BRANCH  36  41
ATOM     41  N   UNL     1      -8.506   6.627  72.886  0.00  0.00    -0.269 NA
ATOM     42  C   UNL     1      -9.340   7.490  73.730  0.00  0.00    +0.090 C 
ATOM     43  C   UNL     1      -8.447   5.331  73.458  0.00  0.00    +0.090 C 
ENDBRANCH  36  41
ENDBRANCH  32  33
ENDBRANCH  16  32
BRANCH   4  44
ATOM     44  C   UNL     1      -9.821  17.567  66.511  0.00  0.00    +0.097 C 
BRANCH  44  45
ATOM     45  C   UNL     1     -10.512  18.568  67.452  0.00  0.00    +0.024 C 
BRANCH  45  46
ATOM     46  C   UNL     1      -9.649  19.720  67.645  0.00  0.00    +0.026 C 
BRANCH  46  47
ATOM     47  C   UNL     1      -8.276  19.588  68.155  0.00  0.00    +0.108 C 
BRANCH  47  48
ATOM     48  N   UNL     1      -7.466  20.306  67.166  0.00  0.00    -0.308 N 
ATOM     49  C   UNL     1      -6.811  19.611  66.197  0.00  0.00    +0.096 A 
ATOM     50  C   UNL     1      -5.785  20.404  65.687  0.00  0.00    +0.102 A 
ATOM     51  N   UNL     1      -5.751  21.451  66.550  0.00  0.00    -0.224 NA
ATOM     52  C   UNL     1      -6.514  21.162  67.637  0.00  0.00    +0.179 A 
BRANCH  50  53
ATOM     53  C   UNL     1      -5.376  20.340  64.291  0.00  0.00    +0.038 A 
ATOM     54  C   UNL     1      -6.032  21.030  63.277  0.00  0.00    +0.100 A 
ATOM     55  N   UNL     1      -5.958  20.446  62.053  0.00  0.00    -0.242 NA
ATOM     56  C   UNL     1      -5.173  19.355  61.855  0.00  0.00    +0.099 A 
ATOM     57  C   UNL     1      -4.213  18.976  62.793  0.00  0.00    +0.021 A 
ATOM     58  C   UNL     1      -4.136  19.841  63.887  0.00  0.00    +0.005 A 
ENDBRANCH  50  53
ENDBRANCH  47  48
ENDBRANCH  46  47
ENDBRANCH  45  46
ENDBRANCH  44  45
ENDBRANCH   4  44
TORSDOF 11
ENDMDL
MODEL 7
REMARK VINA RESULT:      -6.5      3.225      6.634
REMARK  Name = 
REMARK  11 active torsions:
REMARK  status: ('A' for Active; 'I' for Inactive)
REMARK    1  A    between atoms: C_2  and  C_3
REMARK    2  A    between atoms: C_13  and  O_14
REMARK    3  A    between atoms: O_14  and  C_15
REMARK    4  A    between atoms: C_20  and  N_21
REMARK    5  A    between atoms: C_26  and  O_28
REMARK    6  A    between atoms: N_38  and  C_39
REMARK    7  A    between atoms: C_39  and  C_40
REMARK    8  A    between atoms: C_40  and  C_41
REMARK    9  A    between atoms: C_41  and  C_42
REMARK   10  A    between atoms: C_42  and  N_43
REMARK   11  A    between atoms: C_46  and  C_47
REMARK                            x       y       z     vdW  Elec       q    Type
REMARK                         _______ _______ _______ _____ _____    ______ ____
ROOT
ATOM      1  C   UNL     1      -8.498   8.090  68.174  0.00  0.00    +0.207 C 
ATOM      2  C   UNL     1      -9.841   7.927  67.277  0.00  0.00    +0.191 C 
ATOM      3  C   UNL     1     -10.882   9.100  67.708  0.00  0.00    +0.125 C 
ATOM      4  N   UNL     1     -10.285  10.190  66.755  0.00  0.00    -0.244 N 
ATOM      5  C   UNL     1      -8.961   9.737  66.538  0.00  0.00    +0.405 C 
ATOM      6  O   UNL     1      -7.972  10.531  66.438  0.00  0.00    -0.226 OA
ATOM      7  C   UNL     1     -10.095   9.638  69.123  0.00  0.00    +0.079 C 
ATOM      8  C   UNL     1     -10.567  11.189  68.973  0.00  0.00    +0.010 C 
ATOM      9  C   UNL     1     -11.293   9.290  70.125  0.00  0.00    +0.152 C 
ATOM     10  O   UNL     1     -11.385  10.058  71.034  0.00  0.00    -0.296 OA
ATOM     11  C   UNL     1     -11.343   7.725  70.488  0.00  0.00    +0.060 C 
ATOM     12  C   UNL     1     -12.441   7.921  71.684  0.00  0.00    +0.008 C 
ATOM     13  C   UNL     1     -10.115   7.815  71.557  0.00  0.00    +0.037 C 
ATOM     14  C   UNL     1      -9.919   6.487  72.193  0.00  0.00    +0.119 C 
ATOM     15  C   UNL     1      -9.772   6.825  73.680  0.00  0.00    +0.032 C 
ATOM     16  C   UNL     1      -8.498   5.835  71.718  0.00  0.00    +0.149 C 
ATOM     17  C   UNL     1      -7.620   7.075  72.541  0.00  0.00    +0.088 C 
ATOM     18  C   UNL     1      -6.169   6.356  72.447  0.00  0.00    +0.010 C 
ATOM     19  C   UNL     1      -7.464   8.046  71.339  0.00  0.00    +0.163 C 
ATOM     20  O   UNL     1      -7.293   9.176  71.817  0.00  0.00    -0.295 OA
ATOM     21  C   UNL     1      -6.664   8.082  69.982  0.00  0.00    +0.156 C 
ATOM     22  C   UNL     1      -5.182   7.584  70.511  0.00  0.00    +0.020 C 
ATOM     23  C   UNL     1      -7.182   6.655  69.441  0.00  0.00    +0.324 C 
ATOM     24  O   UNL     1      -6.461   5.650  69.608  0.00  0.00    -0.250 OA
ATOM     25  C   UNL     1     -10.428   6.633  67.307  0.00  0.00    +0.049 C 
ATOM     26  O   UNL     1      -9.302   8.455  66.085  0.00  0.00    -0.436 OA
ATOM     27  O   UNL     1      -8.444   6.693  68.834  0.00  0.00    -0.448 OA
ENDROOT
BRANCH  14  28
ATOM     28  O   UNL     1     -10.913   5.558  71.995  0.00  0.00    -0.353 OA
ATOM     29  C   UNL     1     -11.402   5.171  73.250  0.00  0.00    +0.174 C 
ENDBRANCH  14  28
BRANCH   1  31
ATOM     30  C   UNL     1      -6.611   7.860  67.034  0.00  0.00    +0.004 C 
ATOM     31  C   UNL     1      -7.543   7.483  66.957  0.00  0.00    +0.047 C 
ENDBRANCH   1  31
BRANCH  16  32
ATOM     32  O   UNL     1      -8.454   4.954  72.918  0.00  0.00    -0.328 OA
BRANCH  32  33
ATOM     33  C   UNL     1      -7.846   3.627  72.495  0.00  0.00    +0.268 C 
ATOM     34  C   UNL     1      -9.105   2.716  73.236  0.00  0.00    +0.222 C 
ATOM     35  O   UNL     1      -8.210   2.414  74.412  0.00  0.00    -0.216 OA
ATOM     36  C   UNL     1      -8.748   1.255  72.446  0.00  0.00    +0.096 C 
ATOM     37  C   UNL     1      -9.555   1.786  71.140  0.00  0.00    +0.048 C 
ATOM     38  C   UNL     1      -8.324   2.561  70.387  0.00  0.00    +0.119 C 
ATOM     39  C   UNL     1      -9.437   3.092  69.268  0.00  0.00    +0.032 C 
ATOM     40  O   UNL     1      -8.563   3.813  71.171  0.00  0.00    -0.331 OA
BRANCH  36  41
ATOM     41  N   UNL     1     -10.016   0.533  72.984  0.00  0.00    -0.269 NA
ATOM     42  C   UNL     1     -10.847   0.184  71.826  0.00  0.00    +0.090 C 
ATOM     43  C   UNL     1      -9.711  -0.646  73.710  0.00  0.00    +0.090 C 
ENDBRANCH  36  41
ENDBRANCH  32  33
ENDBRANCH  16  32
BRANCH   4  44
ATOM     44  C   UNL     1     -10.943  11.418  66.339  0.00  0.00    +0.097 C 
BRANCH  44  45
ATOM     45  C   UNL     1     -10.775  11.700  64.836  0.00  0.00    +0.024 C 
BRANCH  45  46
ATOM     46  C   UNL     1     -10.744  13.135  64.618  0.00  0.00    +0.026 C 
BRANCH  46  47
ATOM     47  C   UNL     1     -11.966  13.952  64.634  0.00  0.00    +0.108 C 
BRANCH  47  48
ATOM     48  N   UNL     1     -11.641  15.048  65.553  0.00  0.00    -0.308 N 
ATOM     49  C   UNL     1     -10.563  15.840  65.306  0.00  0.00    +0.096 A 
ATOM     50  C   UNL     1     -10.189  16.476  66.486  0.00  0.00    +0.102 A 
ATOM     51  N   UNL     1     -10.938  15.844  67.425  0.00  0.00    -0.224 NA
ATOM     52  C   UNL     1     -11.508  14.739  66.875  0.00  0.00    +0.179 A 
BRANCH  50  53
ATOM     53  C   UNL     1      -9.628  17.821  66.499  0.00  0.00    +0.038 A 
ATOM     54  C   UNL     1      -8.260  18.071  66.501  0.00  0.00    +0.100 A 
ATOM     55  N   UNL     1      -7.897  19.236  67.098  0.00  0.00    -0.242 NA
ATOM     56  C   UNL     1      -8.840  20.121  67.514  0.00  0.00    +0.099 A 
ATOM     57  C   UNL     1     -10.165  20.014  67.095  0.00  0.00    +0.021 A 
ATOM     58  C   UNL     1     -10.383  18.959  66.206  0.00  0.00    +0.005 A 
ENDBRANCH  50  53
ENDBRANCH  47  48
ENDBRANCH  46  47
ENDBRANCH  45  46
ENDBRANCH  44  45
ENDBRANCH   4  44
TORSDOF 11
ENDMDL
MODEL 8
REMARK VINA RESULT:      -6.4      3.836      6.380
REMARK  Name = 
REMARK  11 active torsions:
REMARK  status: ('A' for Active; 'I' for Inactive)
REMARK    1  A    between atoms: C_2  and  C_3
REMARK    2  A    between atoms: C_13  and  O_14
REMARK    3  A    between atoms: O_14  and  C_15
REMARK    4  A    between atoms: C_20  and  N_21
REMARK    5  A    between atoms: C_26  and  O_28
REMARK    6  A    between atoms: N_38  and  C_39
REMARK    7  A    between atoms: C_39  and  C_40
REMARK    8  A    between atoms: C_40  and  C_41
REMARK    9  A    between atoms: C_41  and  C_42
REMARK   10  A    between atoms: C_42  and  N_43
REMARK   11  A    between atoms: C_46  and  C_47
REMARK                            x       y       z     vdW  Elec       q    Type
REMARK                         _______ _______ _______ _____ _____    ______ ____
ROOT
ATOM      1  C   UNL     1     -10.291  13.110  66.924  0.00  0.00    +0.207 C 
ATOM      2  C   UNL     1     -10.614  14.221  68.062  0.00  0.00    +0.191 C 
ATOM      3  C   UNL     1      -9.425  15.330  68.038  0.00  0.00    +0.125 C 
ATOM      4  N   UNL     1     -10.054  16.202  66.900  0.00  0.00    -0.244 N 
ATOM      5  C   UNL     1     -10.900  15.289  66.226  0.00  0.00    +0.405 C 
ATOM      6  O   UNL     1     -11.060  15.305  64.963  0.00  0.00    -0.226 OA
ATOM      7  C   UNL     1      -8.315  14.499  67.044  0.00  0.00    +0.079 C 
ATOM      8  C   UNL     1      -7.692  15.842  66.364  0.00  0.00    +0.010 C 
ATOM      9  C   UNL     1      -7.144  14.414  68.132  0.00  0.00    +0.152 C 
ATOM     10  O   UNL     1      -6.053  14.484  67.656  0.00  0.00    -0.296 OA
ATOM     11  C   UNL     1      -7.397  13.242  69.202  0.00  0.00    +0.060 C 
ATOM     12  C   UNL     1      -5.897  13.350  69.846  0.00  0.00    +0.008 C 
ATOM     13  C   UNL     1      -6.911  12.057  68.191  0.00  0.00    +0.037 C 
ATOM     14  C   UNL     1      -6.935  10.757  68.910  0.00  0.00    +0.119 C 
ATOM     15  C   UNL     1      -5.599  10.114  68.522  0.00  0.00    +0.032 C 
ATOM     16  C   UNL     1      -8.110   9.796  68.305  0.00  0.00    +0.149 C 
ATOM     17  C   UNL     1      -7.278   9.678  66.795  0.00  0.00    +0.088 C 
ATOM     18  C   UNL     1      -8.164   8.458  66.199  0.00  0.00    +0.010 C 
ATOM     19  C   UNL     1      -7.999  10.849  66.073  0.00  0.00    +0.163 C 
ATOM     20  O   UNL     1      -7.238  11.233  65.175  0.00  0.00    -0.295 OA
ATOM     21  C   UNL     1      -9.439  11.139  65.502  0.00  0.00    +0.156 C 
ATOM     22  C   UNL     1      -9.725   9.718  64.714  0.00  0.00    +0.020 C 
ATOM     23  C   UNL     1     -10.235  10.789  66.859  0.00  0.00    +0.324 C 
ATOM     24  O   UNL     1     -10.734   9.652  66.987  0.00  0.00    -0.250 OA
ATOM     25  C   UNL     1     -10.848  13.695  69.362  0.00  0.00    +0.049 C 
ATOM     26  O   UNL     1     -11.634  14.888  67.351  0.00  0.00    -0.436 OA
ATOM     27  O   UNL     1     -10.266  11.832  67.793  0.00  0.00    -0.448 OA
ENDROOT
BRANCH  14  28
ATOM     28  O   UNL     1      -7.078  10.813  70.276  0.00  0.00    -0.353 OA
ATOM     29  C   UNL     1      -5.900  10.322  70.855  0.00  0.00    +0.174 C 
ENDBRANCH  14  28
BRANCH   1  31
ATOM     30  C   UNL     1     -12.052  12.531  65.708  0.00  0.00    +0.004 C 
ATOM     31  C   UNL     1     -11.907  12.826  66.661  0.00  0.00    +0.047 C 
ENDBRANCH   1  31
BRANCH  16  32
ATOM     32  O   UNL     1      -7.432   8.574  68.818  0.00  0.00    -0.328 OA
BRANCH  32  33
ATOM     33  C   UNL     1      -8.510   7.588  69.238  0.00  0.00    +0.268 C 
ATOM     34  C   UNL     1      -7.797   7.334  70.784  0.00  0.00    +0.222 C 
ATOM     35  O   UNL     1      -7.205   6.031  70.309  0.00  0.00    -0.216 OA
ATOM     36  C   UNL     1      -9.157   6.592  71.479  0.00  0.00    +0.096 C 
ATOM     37  C   UNL     1      -9.803   8.060  71.737  0.00  0.00    +0.048 C 
ATOM     38  C   UNL     1     -10.569   8.248  70.302  0.00  0.00    +0.119 C 
ATOM     39  C   UNL     1     -10.950   9.795  70.789  0.00  0.00    +0.032 C 
ATOM     40  O   UNL     1      -9.334   8.792  69.655  0.00  0.00    -0.331 OA
BRANCH  36  41
ATOM     41  N   UNL     1      -8.543   6.569  72.909  0.00  0.00    -0.269 NA
ATOM     42  C   UNL     1      -9.335   7.482  73.741  0.00  0.00    +0.090 C 
ATOM     43  C   UNL     1      -8.557   5.277  73.492  0.00  0.00    +0.090 C 
ENDBRANCH  36  41
ENDBRANCH  32  33
ENDBRANCH  16  32
BRANCH   4  44
ATOM     44  C   UNL     1      -9.709  17.579  66.584  0.00  0.00    +0.097 C 
BRANCH  44  45
ATOM     45  C   UNL     1      -9.756  18.499  67.816  0.00  0.00    +0.024 C 
BRANCH  45  46
ATOM     46  C   UNL     1      -9.297  19.825  67.442  0.00  0.00    +0.026 C 
BRANCH  46  47
ATOM     47  C   UNL     1      -8.178  20.027  66.510  0.00  0.00    +0.108 C 
BRANCH  47  48
ATOM     48  N   UNL     1      -7.026  19.461  67.220  0.00  0.00    -0.308 N 
ATOM     49  C   UNL     1      -6.377  20.204  68.157  0.00  0.00    +0.096 A 
ATOM     50  C   UNL     1      -5.104  19.675  68.351  0.00  0.00    +0.102 A 
ATOM     51  N   UNL     1      -4.990  18.773  67.343  0.00  0.00    -0.224 NA
ATOM     52  C   UNL     1      -6.011  18.953  66.464  0.00  0.00    +0.179 A 
BRANCH  50  53
ATOM     53  C   UNL     1      -4.441  19.704  69.648  0.00  0.00    +0.038 A 
ATOM     54  C   UNL     1      -4.953  19.067  70.774  0.00  0.00    +0.100 A 
ATOM     55  N   UNL     1      -4.609  19.641  71.956  0.00  0.00    -0.242 NA
ATOM     56  C   UNL     1      -3.717  20.665  71.992  0.00  0.00    +0.099 A 
ATOM     57  C   UNL     1      -2.918  20.966  70.890  0.00  0.00    +0.021 A 
ATOM     58  C   UNL     1      -3.112  20.100  69.811  0.00  0.00    +0.005 A 
ENDBRANCH  50  53
ENDBRANCH  47  48
ENDBRANCH  46  47
ENDBRANCH  45  46
ENDBRANCH  44  45
ENDBRANCH   4  44
TORSDOF 11
ENDMDL
MODEL 9
REMARK VINA RESULT:      -6.3      2.595      5.479
REMARK  Name = 
REMARK  11 active torsions:
REMARK  status: ('A' for Active; 'I' for Inactive)
REMARK    1  A    between atoms: C_2  and  C_3
REMARK    2  A    between atoms: C_13  and  O_14
REMARK    3  A    between atoms: O_14  and  C_15
REMARK    4  A    between atoms: C_20  and  N_21
REMARK    5  A    between atoms: C_26  and  O_28
REMARK    6  A    between atoms: N_38  and  C_39
REMARK    7  A    between atoms: C_39  and  C_40
REMARK    8  A    between atoms: C_40  and  C_41
REMARK    9  A    between atoms: C_41  and  C_42
REMARK   10  A    between atoms: C_42  and  N_43
REMARK   11  A    between atoms: C_46  and  C_47
REMARK                            x       y       z     vdW  Elec       q    Type
REMARK                         _______ _______ _______ _____ _____    ______ ____
ROOT
ATOM      1  C   UNL     1      -8.841   7.447  67.099  0.00  0.00    +0.207 C 
ATOM      2  C   UNL     1     -10.375   7.492  67.627  0.00  0.00    +0.191 C 
ATOM      3  C   UNL     1     -10.358   7.344  69.245  0.00  0.00    +0.125 C 
ATOM      4  N   UNL     1     -10.134   8.867  69.535  0.00  0.00    -0.244 N 
ATOM      5  C   UNL     1      -9.548   9.338  68.335  0.00  0.00    +0.405 C 
ATOM      6  O   UNL     1      -8.635  10.226  68.319  0.00  0.00    -0.226 OA
ATOM      7  C   UNL     1      -8.730   6.874  69.446  0.00  0.00    +0.079 C 
ATOM      8  C   UNL     1      -8.547   7.591  70.897  0.00  0.00    +0.010 C 
ATOM      9  C   UNL     1      -9.046   5.450  70.105  0.00  0.00    +0.152 C 
ATOM     10  O   UNL     1      -8.242   5.121  70.923  0.00  0.00    -0.296 OA
ATOM     11  C   UNL     1      -9.454   4.352  69.004  0.00  0.00    +0.060 C 
ATOM     12  C   UNL     1      -9.371   3.101  70.055  0.00  0.00    +0.008 C 
ATOM     13  C   UNL     1      -7.917   4.092  68.524  0.00  0.00    +0.037 C 
ATOM     14  C   UNL     1      -7.896   3.010  67.507  0.00  0.00    +0.119 C 
ATOM     15  C   UNL     1      -6.732   2.122  67.959  0.00  0.00    +0.032 C 
ATOM     16  C   UNL     1      -7.483   3.614  66.045  0.00  0.00    +0.149 C 
ATOM     17  C   UNL     1      -5.895   3.988  66.615  0.00  0.00    +0.088 C 
ATOM     18  C   UNL     1      -5.248   4.282  65.157  0.00  0.00    +0.010 C 
ATOM     19  C   UNL     1      -6.171   5.458  67.035  0.00  0.00    +0.163 C 
ATOM     20  O   UNL     1      -5.321   5.747  67.888  0.00  0.00    -0.295 OA
ATOM     21  C   UNL     1      -6.467   6.827  66.314  0.00  0.00    +0.156 C 
ATOM     22  C   UNL     1      -5.324   6.777  65.125  0.00  0.00    +0.020 C 
ATOM     23  C   UNL     1      -7.707   6.291  65.434  0.00  0.00    +0.324 C 
ATOM     24  O   UNL     1      -7.500   5.943  64.253  0.00  0.00    -0.250 OA
ATOM     25  C   UNL     1     -11.251   6.565  66.999  0.00  0.00    +0.049 C 
ATOM     26  O   UNL     1     -10.557   8.883  67.474  0.00  0.00    -0.436 OA
ATOM     27  O   UNL     1      -8.927   6.253  66.121  0.00  0.00    -0.448 OA
ENDROOT
BRANCH  14  28
ATOM     28  O   UNL     1      -9.050   2.277  67.365  0.00  0.00    -0.353 OA
ATOM     29  C   UNL     1      -8.777   0.959  67.754  0.00  0.00    +0.174 C 
ENDBRANCH  14  28
BRANCH   1  31
ATOM     30  C   UNL     1      -8.371   8.971  65.559  0.00  0.00    +0.004 C 
ATOM     31  C   UNL     1      -9.192   8.444  65.817  0.00  0.00    +0.047 C 
ENDBRANCH   1  31
BRANCH  16  32
ATOM     32  O   UNL     1      -7.039   2.274  65.571  0.00  0.00    -0.328 OA
BRANCH  32  33
ATOM     33  C   UNL     1      -7.407   2.158  64.101  0.00  0.00    +0.268 C 
ATOM     34  C   UNL     1      -8.164   0.628  64.323  0.00  0.00    +0.222 C 
ATOM     35  O   UNL     1      -6.946  -0.068  63.769  0.00  0.00    -0.216 OA
ATOM     36  C   UNL     1      -8.982   0.625  62.834  0.00  0.00    +0.096 C 
ATOM     37  C   UNL     1     -10.131   1.572  63.484  0.00  0.00    +0.048 C 
ATOM     38  C   UNL     1      -9.453   3.030  63.174  0.00  0.00    +0.119 C 
ATOM     39  C   UNL     1     -10.694   3.713  64.048  0.00  0.00    +0.032 C 
ATOM     40  O   UNL     1      -8.640   2.978  64.429  0.00  0.00    -0.331 OA
BRANCH  36  41
ATOM     41  N   UNL     1      -9.798  -0.658  63.167  0.00  0.00    -0.269 NA
ATOM     42  C   UNL     1     -11.203  -0.259  63.310  0.00  0.00    +0.090 C 
ATOM     43  C   UNL     1      -9.695  -1.651  62.160  0.00  0.00    +0.090 C 
ENDBRANCH  36  41
ENDBRANCH  32  33
ENDBRANCH  16  32
BRANCH   4  44
ATOM     44  C   UNL     1     -10.368   9.543  70.800  0.00  0.00    +0.097 C 
BRANCH  44  45
ATOM     45  C   UNL     1     -11.820  10.025  70.954  0.00  0.00    +0.024 C 
BRANCH  45  46
ATOM     46  C   UNL     1     -12.089  11.061  69.973  0.00  0.00    +0.026 C 
BRANCH  46  47
ATOM     47  C   UNL     1     -12.080  12.489  70.326  0.00  0.00    +0.108 C 
BRANCH  47  48
ATOM     48  N   UNL     1     -12.080  13.169  69.026  0.00  0.00    -0.308 N 
ATOM     49  C   UNL     1     -11.536  12.554  67.941  0.00  0.00    +0.096 A 
ATOM     50  C   UNL     1     -11.237  13.515  66.979  0.00  0.00    +0.102 A 
ATOM     51  N   UNL     1     -11.418  14.683  67.647  0.00  0.00    -0.224 NA
ATOM     52  C   UNL     1     -11.549  14.424  68.975  0.00  0.00    +0.179 A 
BRANCH  50  53
ATOM     53  C   UNL     1     -11.332  13.240  65.552  0.00  0.00    +0.038 A 
ATOM     54  C   UNL     1     -12.089  14.015  64.680  0.00  0.00    +0.100 A 
ATOM     55  N   UNL     1     -12.562  13.350  63.595  0.00  0.00    -0.242 NA
ATOM     56  C   UNL     1     -12.180  12.070  63.349  0.00  0.00    +0.099 A 
ATOM     57  C   UNL     1     -11.093  11.501  64.011  0.00  0.00    +0.021 A 
ATOM     58  C   UNL     1     -10.454  12.382  64.886  0.00  0.00    +0.005 A 
ENDBRANCH  50  53
ENDBRANCH  47  48
ENDBRANCH  46  47
ENDBRANCH  45  46
ENDBRANCH  44  45
ENDBRANCH   4  44
TORSDOF 11
ENDMDL
