MODEL 1
REMARK VINA RESULT:      -5.8      0.000      0.000
REMARK  Name = 
REMARK  5 active torsions:
REMARK  status: ('A' for Active; 'I' for Inactive)
REMARK    1  A    between atoms: C_2  and  C_3
REMARK    2  A    between atoms: C_3  and  C_4
REMARK    3  A    between atoms: C_4  and  N_5
REMARK    4  A    between atoms: C_10  and  C_11
REMARK    5  A    between atoms: N_13  and  C_14
REMARK                            x       y       z     vdW  Elec       q    Type
REMARK                         _______ _______ _______ _____ _____    ______ ____
ROOT
ATOM      1  C   UNL     1     -10.323  14.432  67.117  0.00  0.00    +0.260 C 
ATOM      2  N   UNL     1     -11.213  13.386  66.833  0.00  0.00    -0.179 NA
ATOM      3  O   UNL     1      -9.136  14.286  66.902  0.00  0.00    -0.272 OA
ENDROOT
BRANCH   2   4
ATOM      4  C   UNL     1     -10.966  12.326  65.939  0.00  0.00    +0.065 A 
ATOM      5  C   UNL     1     -10.535  11.120  66.480  0.00  0.00    -0.007 A 
ATOM      6  C   UNL     1     -11.192  10.593  67.718  0.00  0.00    +0.032 C 
ATOM      7  C   UNL     1      -9.871  10.292  65.577  0.00  0.00    -0.003 A 
ATOM      8  C   UNL     1     -10.143  10.385  64.218  0.00  0.00    -0.001 A 
ATOM      9  C   UNL     1     -10.988  11.379  63.734  0.00  0.00    -0.003 A 
ATOM     10  C   UNL     1     -11.348  12.408  64.602  0.00  0.00    -0.007 A 
ATOM     11  C   UNL     1     -12.084  13.567  64.066  0.00  0.00    +0.032 C 
ENDBRANCH   2   4
BRANCH   1  13
ATOM     12  N   UNL     1      -9.828  16.301  68.359  0.00  0.00    -0.267 NA
ATOM     13  C   UNL     1     -10.935  15.909  67.305  0.00  0.00    +0.137 C 
ATOM     14  C   UNL     1     -10.110  16.561  66.040  0.00  0.00    +0.025 C 
ATOM     15  C   UNL     1      -9.477  17.817  66.469  0.00  0.00    +0.003 C 
ATOM     16  C   UNL     1     -10.339  18.490  67.496  0.00  0.00    +0.017 C 
ATOM     17  C   UNL     1     -10.208  17.656  68.762  0.00  0.00    +0.072 C 
BRANCH  12  18
ATOM     18  C   UNL     1     -10.199  15.455  69.494  0.00  0.00    +0.072 C 
BRANCH  18  19
ATOM     19  C   UNL     1     -11.429  15.965  70.196  0.00  0.00    +0.017 C 
BRANCH  19  21
ATOM     20  C   UNL     1     -11.991  16.000  72.402  0.00  0.00    +0.000 C 
ATOM     21  C   UNL     1     -11.625  15.356  71.558  0.00  0.00    +0.001 C 
ENDBRANCH  19  21
ENDBRANCH  18  19
ENDBRANCH  12  18
ENDBRANCH   1  13
TORSDOF 5
ENDMDL
MODEL 2
REMARK VINA RESULT:      -5.8      2.153      3.689
REMARK  Name = 
REMARK  5 active torsions:
REMARK  status: ('A' for Active; 'I' for Inactive)
REMARK    1  A    between atoms: C_2  and  C_3
REMARK    2  A    between atoms: C_3  and  C_4
REMARK    3  A    between atoms: C_4  and  N_5
REMARK    4  A    between atoms: C_10  and  C_11
REMARK    5  A    between atoms: N_13  and  C_14
REMARK                            x       y       z     vdW  Elec       q    Type
REMARK                         _______ _______ _______ _____ _____    ______ ____
ROOT
ATOM      1  C   UNL     1     -11.370  13.201  68.057  0.00  0.00    +0.260 C 
ATOM      2  N   UNL     1     -11.951  12.318  67.137  0.00  0.00    -0.179 NA
ATOM      3  O   UNL     1     -10.200  13.508  67.940  0.00  0.00    -0.272 OA
ENDROOT
BRANCH   2   4
ATOM      4  C   UNL     1     -11.465  12.056  65.841  0.00  0.00    +0.065 A 
ATOM      5  C   UNL     1     -11.841  12.931  64.828  0.00  0.00    -0.007 A 
ATOM      6  C   UNL     1     -11.821  14.406  65.086  0.00  0.00    +0.032 C 
ATOM      7  C   UNL     1     -11.745  12.397  63.545  0.00  0.00    -0.003 A 
ATOM      8  C   UNL     1     -10.838  11.377  63.281  0.00  0.00    -0.001 A 
ATOM      9  C   UNL     1     -10.104  10.802  64.313  0.00  0.00    -0.003 A 
ATOM     10  C   UNL     1     -10.477  11.099  65.622  0.00  0.00    -0.007 A 
ATOM     11  C   UNL     1      -9.841  10.361  66.729  0.00  0.00    +0.032 C 
ENDBRANCH   2   4
BRANCH   1  13
ATOM     12  N   UNL     1     -11.691  13.588  70.300  0.00  0.00    -0.267 NA
ATOM     13  C   UNL     1     -12.354  14.098  68.962  0.00  0.00    +0.137 C 
ATOM     14  C   UNL     1     -11.415  15.447  68.889  0.00  0.00    +0.025 C 
ATOM     15  C   UNL     1     -11.246  15.993  70.244  0.00  0.00    +0.003 C 
ATOM     16  C   UNL     1     -12.483  15.734  71.050  0.00  0.00    +0.017 C 
ATOM     17  C   UNL     1     -12.485  14.240  71.342  0.00  0.00    +0.072 C 
BRANCH  12  18
ATOM     18  C   UNL     1     -12.124  12.190  70.320  0.00  0.00    +0.072 C 
BRANCH  18  19
ATOM     19  C   UNL     1     -12.972  11.882  71.525  0.00  0.00    +0.017 C 
BRANCH  19  21
ATOM     20  C   UNL     1     -12.324   9.706  71.363  0.00  0.00    +0.000 C 
ATOM     21  C   UNL     1     -13.077  10.408  71.810  0.00  0.00    +0.001 C 
ENDBRANCH  19  21
ENDBRANCH  18  19
ENDBRANCH  12  18
ENDBRANCH   1  13
TORSDOF 5
ENDMDL
MODEL 3
REMARK VINA RESULT:      -5.7      2.835      5.882
REMARK  Name = 
REMARK  5 active torsions:
REMARK  status: ('A' for Active; 'I' for Inactive)
REMARK    1  A    between atoms: C_2  and  C_3
REMARK    2  A    between atoms: C_3  and  C_4
REMARK    3  A    between atoms: C_4  and  N_5
REMARK    4  A    between atoms: C_10  and  C_11
REMARK    5  A    between atoms: N_13  and  C_14
REMARK                            x       y       z     vdW  Elec       q    Type
REMARK                         _______ _______ _______ _____ _____    ______ ____
ROOT
ATOM      1  C   UNL     1     -11.117  11.832  67.759  0.00  0.00    +0.260 C 
ATOM      2  N   UNL     1     -10.695  11.641  69.082  0.00  0.00    -0.179 NA
ATOM      3  O   UNL     1     -12.022  11.155  67.313  0.00  0.00    -0.272 OA
ENDROOT
BRANCH   2   4
ATOM      4  C   UNL     1     -11.461  11.047  70.104  0.00  0.00    +0.065 A 
ATOM      5  C   UNL     1     -11.158   9.734  70.449  0.00  0.00    -0.007 A 
ATOM      6  C   UNL     1      -9.725   9.322  70.588  0.00  0.00    +0.032 C 
ATOM      7  C   UNL     1     -12.194   9.057  71.088  0.00  0.00    -0.003 A 
ATOM      8  C   UNL     1     -13.145   9.765  71.814  0.00  0.00    -0.001 A 
ATOM      9  C   UNL     1     -13.141  11.155  71.814  0.00  0.00    -0.003 A 
ATOM     10  C   UNL     1     -12.328  11.805  70.887  0.00  0.00    -0.007 A 
ATOM     11  C   UNL     1     -12.445  13.266  70.738  0.00  0.00    +0.032 C 
ENDBRANCH   2   4
BRANCH   1  13
ATOM     12  N   UNL     1     -10.642  12.503  65.612  0.00  0.00    -0.267 NA
ATOM     13  C   UNL     1     -10.697  13.202  67.026  0.00  0.00    +0.137 C 
ATOM     14  C   UNL     1     -12.242  13.728  66.822  0.00  0.00    +0.025 C 
ATOM     15  C   UNL     1     -12.424  14.170  65.431  0.00  0.00    +0.003 C 
ATOM     16  C   UNL     1     -11.142  14.753  64.916  0.00  0.00    +0.017 C 
ATOM     17  C   UNL     1     -10.198  13.575  64.721  0.00  0.00    +0.072 C 
BRANCH  12  18
ATOM     18  C   UNL     1      -9.473  11.635  65.766  0.00  0.00    +0.072 C 
BRANCH  18  19
ATOM     19  C   UNL     1      -9.550  10.426  64.874  0.00  0.00    +0.017 C 
BRANCH  19  21
ATOM     20  C   UNL     1      -9.045   8.929  66.514  0.00  0.00    +0.000 C 
ATOM     21  C   UNL     1      -9.716   9.140  65.639  0.00  0.00    +0.001 C 
ENDBRANCH  19  21
ENDBRANCH  18  19
ENDBRANCH  12  18
ENDBRANCH   1  13
TORSDOF 5
ENDMDL
MODEL 4
REMARK VINA RESULT:      -5.6      2.174      3.231
REMARK  Name = 
REMARK  5 active torsions:
REMARK  status: ('A' for Active; 'I' for Inactive)
REMARK    1  A    between atoms: C_2  and  C_3
REMARK    2  A    between atoms: C_3  and  C_4
REMARK    3  A    between atoms: C_4  and  N_5
REMARK    4  A    between atoms: C_10  and  C_11
REMARK    5  A    between atoms: N_13  and  C_14
REMARK                            x       y       z     vdW  Elec       q    Type
REMARK                         _______ _______ _______ _____ _____    ______ ____
ROOT
ATOM      1  C   UNL     1     -11.030  12.752  67.927  0.00  0.00    +0.260 C 
ATOM      2  N   UNL     1     -11.531  11.717  67.126  0.00  0.00    -0.179 NA
ATOM      3  O   UNL     1      -9.856  13.057  67.850  0.00  0.00    -0.272 OA
ENDROOT
BRANCH   2   4
ATOM      4  C   UNL     1     -10.943  11.251  65.934  0.00  0.00    +0.065 A 
ATOM      5  C   UNL     1     -10.096  10.153  66.025  0.00  0.00    -0.007 A 
ATOM      6  C   UNL     1     -10.490   8.989  66.881  0.00  0.00    +0.032 C 
ATOM      7  C   UNL     1      -9.202  10.029  64.963  0.00  0.00    -0.003 A 
ATOM      8  C   UNL     1      -9.522  10.557  63.719  0.00  0.00    -0.001 A 
ATOM      9  C   UNL     1     -10.678  11.311  63.549  0.00  0.00    -0.003 A 
ATOM     10  C   UNL     1     -11.361  11.723  64.692  0.00  0.00    -0.007 A 
ATOM     11  C   UNL     1     -12.476  12.677  64.550  0.00  0.00    +0.032 C 
ENDBRANCH   2   4
BRANCH   1  13
ATOM     12  N   UNL     1     -11.642  13.379  70.052  0.00  0.00    -0.267 NA
ATOM     13  C   UNL     1     -12.087  13.769  68.589  0.00  0.00    +0.137 C 
ATOM     14  C   UNL     1     -11.085  15.073  68.521  0.00  0.00    +0.025 C 
ATOM     15  C   UNL     1     -11.081  15.750  69.825  0.00  0.00    +0.003 C 
ATOM     16  C   UNL     1     -12.429  15.616  70.467  0.00  0.00    +0.017 C 
ATOM     17  C   UNL     1     -12.542  14.161  70.900  0.00  0.00    +0.072 C 
BRANCH  12  18
ATOM     18  C   UNL     1     -12.139  12.005  70.146  0.00  0.00    +0.072 C 
BRANCH  18  19
ATOM     19  C   UNL     1     -12.919  11.776  71.413  0.00  0.00    +0.017 C 
BRANCH  19  21
ATOM     20  C   UNL     1     -12.211   9.612  71.450  0.00  0.00    +0.000 C 
ATOM     21  C   UNL     1     -13.011  10.322  71.792  0.00  0.00    +0.001 C 
ENDBRANCH  19  21
ENDBRANCH  18  19
ENDBRANCH  12  18
ENDBRANCH   1  13
TORSDOF 5
ENDMDL
MODEL 5
REMARK VINA RESULT:      -5.6      2.660      4.801
REMARK  Name = 
REMARK  5 active torsions:
REMARK  status: ('A' for Active; 'I' for Inactive)
REMARK    1  A    between atoms: C_2  and  C_3
REMARK    2  A    between atoms: C_3  and  C_4
REMARK    3  A    between atoms: C_4  and  N_5
REMARK    4  A    between atoms: C_10  and  C_11
REMARK    5  A    between atoms: N_13  and  C_14
REMARK                            x       y       z     vdW  Elec       q    Type
REMARK                         _______ _______ _______ _____ _____    ______ ____
ROOT
ATOM      1  C   UNL     1     -11.450  12.561  67.654  0.00  0.00    +0.260 C 
ATOM      2  N   UNL     1     -11.049  12.410  68.989  0.00  0.00    -0.179 NA
ATOM      3  O   UNL     1     -12.113  11.691  67.124  0.00  0.00    -0.272 OA
ENDROOT
BRANCH   2   4
ATOM      4  C   UNL     1     -11.665  11.567  69.934  0.00  0.00    +0.065 A 
ATOM      5  C   UNL     1     -11.257  10.239  69.969  0.00  0.00    -0.007 A 
ATOM      6  C   UNL     1      -9.798   9.915  69.879  0.00  0.00    +0.032 C 
ATOM      7  C   UNL     1     -12.179   9.371  70.550  0.00  0.00    -0.003 A 
ATOM      8  C   UNL     1     -13.081   9.846  71.496  0.00  0.00    -0.001 A 
ATOM      9  C   UNL     1     -13.150  11.204  71.785  0.00  0.00    -0.003 A 
ATOM     10  C   UNL     1     -12.480  12.086  70.938  0.00  0.00    -0.007 A 
ATOM     11  C   UNL     1     -12.690  13.535  71.108  0.00  0.00    +0.032 C 
ENDBRANCH   2   4
BRANCH   1  13
ATOM     12  N   UNL     1     -10.264  13.617  65.992  0.00  0.00    -0.267 NA
ATOM     13  C   UNL     1     -11.392  14.036  67.014  0.00  0.00    +0.137 C 
ATOM     14  C   UNL     1     -12.609  13.768  65.940  0.00  0.00    +0.025 C 
ATOM     15  C   UNL     1     -12.189  14.222  64.607  0.00  0.00    +0.003 C 
ATOM     16  C   UNL     1     -11.279  15.407  64.741  0.00  0.00    +0.017 C 
ATOM     17  C   UNL     1      -9.966  14.863  65.286  0.00  0.00    +0.072 C 
BRANCH  12  18
ATOM     18  C   UNL     1      -9.126  13.413  66.889  0.00  0.00    +0.072 C 
BRANCH  18  19
ATOM     19  C   UNL     1      -8.376  14.693  67.144  0.00  0.00    +0.017 C 
BRANCH  19  21
ATOM     20  C   UNL     1      -8.861  15.475  69.226  0.00  0.00    +0.000 C 
ATOM     21  C   UNL     1      -8.100  14.933  68.604  0.00  0.00    +0.001 C 
ENDBRANCH  19  21
ENDBRANCH  18  19
ENDBRANCH  12  18
ENDBRANCH   1  13
TORSDOF 5
ENDMDL
MODEL 6
REMARK VINA RESULT:      -5.6      1.663      6.019
REMARK  Name = 
REMARK  5 active torsions:
REMARK  status: ('A' for Active; 'I' for Inactive)
REMARK    1  A    between atoms: C_2  and  C_3
REMARK    2  A    between atoms: C_3  and  C_4
REMARK    3  A    between atoms: C_4  and  N_5
REMARK    4  A    between atoms: C_10  and  C_11
REMARK    5  A    between atoms: N_13  and  C_14
REMARK                            x       y       z     vdW  Elec       q    Type
REMARK                         _______ _______ _______ _____ _____    ______ ____
ROOT
ATOM      1  C   UNL     1     -11.253  13.465  68.208  0.00  0.00    +0.260 C 
ATOM      2  N   UNL     1     -12.328  14.047  68.896  0.00  0.00    -0.179 NA
ATOM      3  O   UNL     1     -10.147  13.464  68.712  0.00  0.00    -0.272 OA
ENDROOT
BRANCH   2   4
ATOM      4  C   UNL     1     -12.381  14.268  70.286  0.00  0.00    +0.065 A 
ATOM      5  C   UNL     1     -12.835  13.224  71.083  0.00  0.00    -0.007 A 
ATOM      6  C   UNL     1     -12.357  11.830  70.813  0.00  0.00    +0.032 C 
ATOM      7  C   UNL     1     -13.308  13.620  72.332  0.00  0.00    -0.003 A 
ATOM      8  C   UNL     1     -12.830  14.786  72.920  0.00  0.00    -0.001 A 
ATOM      9  C   UNL     1     -11.967  15.624  72.222  0.00  0.00    -0.003 A 
ATOM     10  C   UNL     1     -11.797  15.396  70.858  0.00  0.00    -0.007 A 
ATOM     11  C   UNL     1     -11.041  16.378  70.060  0.00  0.00    +0.032 C 
ENDBRANCH   2   4
BRANCH   1  13
ATOM     12  N   UNL     1     -10.623  13.217  66.012  0.00  0.00    -0.267 NA
ATOM     13  C   UNL     1     -11.592  12.457  67.000  0.00  0.00    +0.137 C 
ATOM     14  C   UNL     1     -10.456  11.346  67.425  0.00  0.00    +0.025 C 
ATOM     15  C   UNL     1      -9.674  10.972  66.237  0.00  0.00    +0.003 C 
ATOM     16  C   UNL     1     -10.550  11.024  65.021  0.00  0.00    +0.017 C 
ATOM     17  C   UNL     1     -10.798  12.500  64.748  0.00  0.00    +0.072 C 
BRANCH  12  18
ATOM     18  C   UNL     1     -11.336  14.482  65.827  0.00  0.00    +0.072 C 
BRANCH  18  19
ATOM     19  C   UNL     1     -10.446  15.548  65.247  0.00  0.00    +0.017 C 
BRANCH  19  21
ATOM     20  C   UNL     1      -8.994  16.445  66.754  0.00  0.00    +0.000 C 
ATOM     21  C   UNL     1      -9.999  16.560  66.267  0.00  0.00    +0.001 C 
ENDBRANCH  19  21
ENDBRANCH  18  19
ENDBRANCH  12  18
ENDBRANCH   1  13
TORSDOF 5
ENDMDL
MODEL 7
REMARK VINA RESULT:      -5.5      2.331      5.764
REMARK  Name = 
REMARK  5 active torsions:
REMARK  status: ('A' for Active; 'I' for Inactive)
REMARK    1  A    between atoms: C_2  and  C_3
REMARK    2  A    between atoms: C_3  and  C_4
REMARK    3  A    between atoms: C_4  and  N_5
REMARK    4  A    between atoms: C_10  and  C_11
REMARK    5  A    between atoms: N_13  and  C_14
REMARK                            x       y       z     vdW  Elec       q    Type
REMARK                         _______ _______ _______ _____ _____    ______ ____
ROOT
ATOM      1  C   UNL     1     -10.362  15.889  68.089  0.00  0.00    +0.260 C 
ATOM      2  N   UNL     1      -9.421  16.839  68.510  0.00  0.00    -0.179 NA
ATOM      3  O   UNL     1     -10.936  16.040  67.029  0.00  0.00    -0.272 OA
ENDROOT
BRANCH   2   4
ATOM      4  C   UNL     1      -8.744  17.743  67.668  0.00  0.00    +0.065 A 
ATOM      5  C   UNL     1      -9.292  19.012  67.519  0.00  0.00    -0.007 A 
ATOM      6  C   UNL     1      -9.812  19.735  68.723  0.00  0.00    +0.032 C 
ATOM      7  C   UNL     1      -8.886  19.679  66.365  0.00  0.00    -0.003 A 
ATOM      8  C   UNL     1      -7.660  19.379  65.783  0.00  0.00    -0.001 A 
ATOM      9  C   UNL     1      -6.882  18.336  66.274  0.00  0.00    -0.003 A 
ATOM     10  C   UNL     1      -7.468  17.460  67.186  0.00  0.00    -0.007 A 
ATOM     11  C   UNL     1      -6.733  16.243  67.577  0.00  0.00    +0.032 C 
ENDBRANCH   2   4
BRANCH   1  13
ATOM     12  N   UNL     1     -11.870  14.528  69.165  0.00  0.00    -0.267 NA
ATOM     13  C   UNL     1     -10.337  14.443  68.795  0.00  0.00    +0.137 C 
ATOM     14  C   UNL     1     -10.613  13.606  67.405  0.00  0.00    +0.025 C 
ATOM     15  C   UNL     1     -11.687  12.629  67.633  0.00  0.00    +0.003 C 
ATOM     16  C   UNL     1     -11.628  12.135  69.048  0.00  0.00    +0.017 C 
ATOM     17  C   UNL     1     -12.107  13.292  69.913  0.00  0.00    +0.072 C 
BRANCH  12  18
ATOM     18  C   UNL     1     -11.862  15.583  70.180  0.00  0.00    +0.072 C 
BRANCH  18  19
ATOM     19  C   UNL     1     -11.798  15.021  71.574  0.00  0.00    +0.017 C 
BRANCH  19  21
ATOM     20  C   UNL     1     -12.438  15.606  73.679  0.00  0.00    +0.000 C 
ATOM     21  C   UNL     1     -12.400  15.936  72.606  0.00  0.00    +0.001 C 
ENDBRANCH  19  21
ENDBRANCH  18  19
ENDBRANCH  12  18
ENDBRANCH   1  13
TORSDOF 5
ENDMDL
MODEL 8
REMARK VINA RESULT:      -5.4      2.721      5.497
REMARK  Name = 
REMARK  5 active torsions:
REMARK  status: ('A' for Active; 'I' for Inactive)
REMARK    1  A    between atoms: C_2  and  C_3
REMARK    2  A    between atoms: C_3  and  C_4
REMARK    3  A    between atoms: C_4  and  N_5
REMARK    4  A    between atoms: C_10  and  C_11
REMARK    5  A    between atoms: N_13  and  C_14
REMARK                            x       y       z     vdW  Elec       q    Type
REMARK                         _______ _______ _______ _____ _____    ______ ____
ROOT
ATOM      1  C   UNL     1     -11.275  11.206  68.141  0.00  0.00    +0.260 C 
ATOM      2  N   UNL     1     -10.310  10.232  67.849  0.00  0.00    -0.179 NA
ATOM      3  O   UNL     1     -12.418  10.869  68.380  0.00  0.00    -0.272 OA
ENDROOT
BRANCH   2   4
ATOM      4  C   UNL     1     -10.395   8.870  68.201  0.00  0.00    +0.065 A 
ATOM      5  C   UNL     1     -10.405   7.942  67.166  0.00  0.00    -0.007 A 
ATOM      6  C   UNL     1      -9.456   8.108  66.019  0.00  0.00    +0.032 C 
ATOM      7  C   UNL     1     -10.949   6.706  67.511  0.00  0.00    -0.003 A 
ATOM      8  C   UNL     1     -10.915   6.275  68.831  0.00  0.00    -0.001 A 
ATOM      9  C   UNL     1     -10.446   7.114  69.836  0.00  0.00    -0.003 A 
ATOM     10  C   UNL     1     -10.250   8.458  69.523  0.00  0.00    -0.007 A 
ATOM     11  C   UNL     1      -9.936   9.404  70.610  0.00  0.00    +0.032 C 
ENDBRANCH   2   4
BRANCH   1  13
ATOM     12  N   UNL     1     -11.863  13.383  67.697  0.00  0.00    -0.267 NA
ATOM     13  C   UNL     1     -10.759  12.669  68.570  0.00  0.00    +0.137 C 
ATOM     14  C   UNL     1     -11.657  12.735  69.947  0.00  0.00    +0.025 C 
ATOM     15  C   UNL     1     -12.361  14.024  70.006  0.00  0.00    +0.003 C 
ATOM     16  C   UNL     1     -11.521  15.087  69.363  0.00  0.00    +0.017 C 
ATOM     17  C   UNL     1     -11.564  14.806  67.868  0.00  0.00    +0.072 C 
BRANCH  12  18
ATOM     18  C   UNL     1     -11.408  13.066  66.342  0.00  0.00    +0.072 C 
BRANCH  18  19
ATOM     19  C   UNL     1     -12.440  13.422  65.306  0.00  0.00    +0.017 C 
BRANCH  19  21
ATOM     20  C   UNL     1     -12.342  12.048  63.493  0.00  0.00    +0.000 C 
ATOM     21  C   UNL     1     -12.026  13.042  63.909  0.00  0.00    +0.001 C 
ENDBRANCH  19  21
ENDBRANCH  18  19
ENDBRANCH  12  18
ENDBRANCH   1  13
TORSDOF 5
ENDMDL
MODEL 9
REMARK VINA RESULT:      -5.4      2.517      5.797
REMARK  Name = 
REMARK  5 active torsions:
REMARK  status: ('A' for Active; 'I' for Inactive)
REMARK    1  A    between atoms: C_2  and  C_3
REMARK    2  A    between atoms: C_3  and  C_4
REMARK    3  A    between atoms: C_4  and  N_5
REMARK    4  A    between atoms: C_10  and  C_11
REMARK    5  A    between atoms: N_13  and  C_14
REMARK                            x       y       z     vdW  Elec       q    Type
REMARK                         _______ _______ _______ _____ _____    ______ ____
ROOT
ATOM      1  C   UNL     1     -10.148  16.284  68.348  0.00  0.00    +0.260 C 
ATOM      2  N   UNL     1      -9.147  17.136  68.834  0.00  0.00    -0.179 NA
ATOM      3  O   UNL     1     -10.684  16.531  67.286  0.00  0.00    -0.272 OA
ENDROOT
BRANCH   2   4
ATOM      4  C   UNL     1      -8.383  18.025  68.053  0.00  0.00    +0.065 A 
ATOM      5  C   UNL     1      -7.259  17.512  67.416  0.00  0.00    -0.007 A 
ATOM      6  C   UNL     1      -7.343  16.183  66.731  0.00  0.00    +0.032 C 
ATOM      7  C   UNL     1      -6.311  18.472  67.067  0.00  0.00    -0.003 A 
ATOM      8  C   UNL     1      -6.702  19.785  66.835  0.00  0.00    -0.001 A 
ATOM      9  C   UNL     1      -8.017  20.179  67.060  0.00  0.00    -0.003 A 
ATOM     10  C   UNL     1      -8.852  19.301  67.748  0.00  0.00    -0.007 A 
ATOM     11  C   UNL     1     -10.187  19.766  68.164  0.00  0.00    +0.032 C 
ENDBRANCH   2   4
BRANCH   1  13
ATOM     12  N   UNL     1     -11.788  14.981  69.293  0.00  0.00    -0.267 NA
ATOM     13  C   UNL     1     -10.251  14.808  68.981  0.00  0.00    +0.137 C 
ATOM     14  C   UNL     1     -10.521  14.059  67.541  0.00  0.00    +0.025 C 
ATOM     15  C   UNL     1     -11.667  13.148  67.676  0.00  0.00    +0.003 C 
ATOM     16  C   UNL     1     -11.703  12.585  69.065  0.00  0.00    +0.017 C 
ATOM     17  C   UNL     1     -12.140  13.730  69.968  0.00  0.00    +0.072 C 
BRANCH  12  18
ATOM     18  C   UNL     1     -11.754  15.984  70.359  0.00  0.00    +0.072 C 
BRANCH  18  19
ATOM     19  C   UNL     1     -12.683  15.633  71.490  0.00  0.00    +0.017 C 
BRANCH  19  21
ATOM     20  C   UNL     1     -12.561  15.573  73.763  0.00  0.00    +0.000 C 
ATOM     21  C   UNL     1     -12.163  16.065  72.835  0.00  0.00    +0.001 C 
ENDBRANCH  19  21
ENDBRANCH  18  19
ENDBRANCH  12  18
ENDBRANCH   1  13
TORSDOF 5
ENDMDL
