MODEL 1
REMARK VINA RESULT:      -7.0      0.000      0.000
REMARK  Name = 
REMARK  10 active torsions:
REMARK  status: ('A' for Active; 'I' for Inactive)
REMARK    1  A    between atoms: C_2  and  O_3
REMARK    2  A    between atoms: O_3  and  C_4
REMARK    3  A    between atoms: C_4  and  C_6
REMARK    4  A    between atoms: C_6  and  C_7
REMARK    5  A    between atoms: C_6  and  N_15
REMARK    6  A    between atoms: C_7  and  C_8
REMARK    7  A    between atoms: C_8  and  C_9
REMARK    8  A    between atoms: N_15  and  CA_16
REMARK    9  A    between atoms: CA_16  and  C_18
REMARK   10  A    between atoms: C_21  and  C_22
REMARK                            x       y       z     vdW  Elec       q    Type
REMARK                         _______ _______ _______ _____ _____    ______ ____
ROOT
ATOM      1  CA  ALA A   1      -9.892  15.669  65.825  0.00  0.00    +0.149 C 
ATOM      2  CB  ALA A   1     -11.029  16.168  64.746  0.00  0.00    +0.029 C 
ENDROOT
BRANCH   1   3
ATOM      3  C   ALA A   1      -9.653  17.137  66.426  0.00  0.00    +0.242 C 
ATOM      4  N   UNK A   2      -8.420  17.762  66.596  0.00  0.00    -0.272 N 
ATOM      5  C   UNK A   2      -7.363  17.179  67.577  0.00  0.00    +0.076 C 
ATOM      6  C   UNK A   2      -6.746  18.690  68.054  0.00  0.00    +0.020 C 
ATOM      7  C   UNK A   2      -6.087  18.044  69.388  0.00  0.00    +0.002 C 
ATOM      8  C   UNK A   2      -5.037  17.181  68.733  0.00  0.00    +0.000 C 
ATOM      9  C   UNK A   2      -4.881  17.353  67.267  0.00  0.00    +0.002 C 
ATOM     10  C   UNK A   2      -8.199  18.952  68.679  0.00  0.00    +0.033 C 
ATOM     11  C   UNK A   2      -6.155  17.057  66.474  0.00  0.00    +0.020 C 
ATOM     12  C   UNK A   2      -8.796  19.187  67.161  0.00  0.00    +0.179 C 
ATOM     13  O   ALA A   1     -10.786  17.425  66.922  0.00  0.00    -0.273 OA
BRANCH  12  14
ATOM     14  C   UNK A   2      -7.537  20.021  66.602  0.00  0.00    +0.382 C 
ATOM     15  O   UNK A   2      -7.296  21.178  67.319  0.00  0.00    -0.244 OA
ATOM     16  O   UNK A   2      -7.183  19.979  65.463  0.00  0.00    -0.244 OA
ENDBRANCH  12  14
ENDBRANCH   1   3
BRANCH   1  17
ATOM     17  N   ALA A   1     -10.977  15.280  66.904  0.00  0.00    -0.201 NA
BRANCH  17  18
ATOM     18  C   UNK A   0     -10.363  13.888  67.336  0.00  0.00    +0.172 C 
BRANCH  18  19
ATOM     19  C   UNK A   0     -11.742  13.081  67.203  0.00  0.00    +0.333 C 
ATOM     20  O   UNK A   0     -12.032  12.065  67.711  0.00  0.00    -0.249 OA
BRANCH  19  21
ATOM     21  O   UNK A   0     -12.346  13.409  66.027  0.00  0.00    -0.448 OA
BRANCH  21  23
ATOM     22  C   UNK A   0     -11.766  12.620  63.822  0.00  0.00    +0.051 C 
ATOM     23  C   UNK A   0     -12.561  12.696  64.909  0.00  0.00    +0.209 C 
ENDBRANCH  21  23
ENDBRANCH  19  21
ENDBRANCH  18  19
BRANCH  18  24
ATOM     24  C   UNK A   0     -10.546  14.166  68.948  0.00  0.00    +0.033 C 
BRANCH  24  25
ATOM     25  C   UNK A   0     -11.713  14.998  69.166  0.00  0.00    +0.028 C 
BRANCH  25  26
ATOM     26  C   UNK A   0     -12.197  15.120  70.545  0.00  0.00    -0.022 A 
ATOM     27  C   UNK A   0     -11.796  16.079  71.438  0.00  0.00    -0.004 A 
ATOM     28  C   UNK A   0     -12.184  15.998  72.759  0.00  0.00    -0.000 A 
ATOM     29  C   UNK A   0     -12.982  14.968  73.187  0.00  0.00    -0.000 A 
ATOM     30  C   UNK A   0     -13.312  13.964  72.321  0.00  0.00    -0.000 A 
ATOM     31  C   UNK A   0     -12.925  14.031  71.013  0.00  0.00    -0.004 A 
ENDBRANCH  25  26
ENDBRANCH  24  25
ENDBRANCH  18  24
ENDBRANCH  17  18
ENDBRANCH   1  17
TORSDOF 10
ENDMDL
MODEL 2
REMARK VINA RESULT:      -7.0      3.200      6.845
REMARK  Name = 
REMARK  10 active torsions:
REMARK  status: ('A' for Active; 'I' for Inactive)
REMARK    1  A    between atoms: C_2  and  O_3
REMARK    2  A    between atoms: O_3  and  C_4
REMARK    3  A    between atoms: C_4  and  C_6
REMARK    4  A    between atoms: C_6  and  C_7
REMARK    5  A    between atoms: C_6  and  N_15
REMARK    6  A    between atoms: C_7  and  C_8
REMARK    7  A    between atoms: C_8  and  C_9
REMARK    8  A    between atoms: N_15  and  CA_16
REMARK    9  A    between atoms: CA_16  and  C_18
REMARK   10  A    between atoms: C_21  and  C_22
REMARK                            x       y       z     vdW  Elec       q    Type
REMARK                         _______ _______ _______ _____ _____    ______ ____
ROOT
ATOM      1  CA  ALA A   1     -11.161  12.355  69.687  0.00  0.00    +0.149 C 
ATOM      2  CB  ALA A   1     -12.204  11.274  70.357  0.00  0.00    +0.029 C 
ENDROOT
BRANCH   1   3
ATOM      3  C   ALA A   1     -11.403  11.835  68.190  0.00  0.00    +0.242 C 
ATOM      4  N   UNK A   2     -10.834  12.368  67.035  0.00  0.00    -0.272 N 
ATOM      5  C   UNK A   2     -11.154  13.823  66.590  0.00  0.00    +0.076 C 
ATOM      6  C   UNK A   2     -11.087  13.493  64.924  0.00  0.00    +0.020 C 
ATOM      7  C   UNK A   2     -11.922  14.841  64.583  0.00  0.00    +0.002 C 
ATOM      8  C   UNK A   2     -10.895  15.863  65.004  0.00  0.00    +0.000 C 
ATOM      9  C   UNK A   2      -9.560  15.325  65.370  0.00  0.00    +0.002 C 
ATOM     10  C   UNK A   2     -12.360  12.552  65.180  0.00  0.00    +0.033 C 
ATOM     11  C   UNK A   2      -9.596  14.331  66.532  0.00  0.00    +0.020 C 
ATOM     12  C   UNK A   2     -11.375  11.433  65.884  0.00  0.00    +0.179 C 
ATOM     13  O   ALA A   1     -12.395  11.053  68.321  0.00  0.00    -0.273 OA
BRANCH  12  14
ATOM     14  C   UNK A   2     -10.158  11.586  64.841  0.00  0.00    +0.382 C 
ATOM     15  O   UNK A   2     -10.540  11.364  63.531  0.00  0.00    -0.244 OA
ATOM     16  O   UNK A   2      -9.019  11.390  65.137  0.00  0.00    -0.244 OA
ENDBRANCH  12  14
ENDBRANCH   1   3
BRANCH   1  17
ATOM     17  N   ALA A   1     -12.266  13.480  69.596  0.00  0.00    -0.201 NA
BRANCH  17  18
ATOM     18  C   UNK A   0     -11.679  14.451  70.698  0.00  0.00    +0.172 C 
BRANCH  18  19
ATOM     19  C   UNK A   0     -13.109  14.884  71.278  0.00  0.00    +0.333 C 
ATOM     20  O   UNK A   0     -13.811  15.740  70.894  0.00  0.00    -0.249 OA
BRANCH  19  21
ATOM     21  O   UNK A   0     -13.195  14.518  72.587  0.00  0.00    -0.448 OA
BRANCH  21  23
ATOM     22  C   UNK A   0     -12.478  16.079  74.282  0.00  0.00    +0.051 C 
ATOM     23  C   UNK A   0     -12.474  14.881  73.660  0.00  0.00    +0.209 C 
ENDBRANCH  21  23
ENDBRANCH  19  21
ENDBRANCH  18  19
BRANCH  18  24
ATOM     24  C   UNK A   0     -11.571  15.741  69.680  0.00  0.00    +0.033 C 
BRANCH  24  25
ATOM     25  C   UNK A   0     -10.195  16.192  69.616  0.00  0.00    +0.028 C 
BRANCH  25  26
ATOM     26  C   UNK A   0      -9.890  17.275  68.675  0.00  0.00    -0.022 A 
ATOM     27  C   UNK A   0     -10.820  17.969  67.946  0.00  0.00    -0.004 A 
ATOM     28  C   UNK A   0     -10.413  18.848  66.964  0.00  0.00    -0.000 A 
ATOM     29  C   UNK A   0      -9.078  19.044  66.718  0.00  0.00    -0.000 A 
ATOM     30  C   UNK A   0      -8.150  18.291  67.381  0.00  0.00    -0.000 A 
ATOM     31  C   UNK A   0      -8.545  17.412  68.348  0.00  0.00    -0.004 A 
ENDBRANCH  25  26
ENDBRANCH  24  25
ENDBRANCH  18  24
ENDBRANCH  17  18
ENDBRANCH   1  17
TORSDOF 10
ENDMDL
MODEL 3
REMARK VINA RESULT:      -6.9      2.451      5.831
REMARK  Name = 
REMARK  10 active torsions:
REMARK  status: ('A' for Active; 'I' for Inactive)
REMARK    1  A    between atoms: C_2  and  O_3
REMARK    2  A    between atoms: O_3  and  C_4
REMARK    3  A    between atoms: C_4  and  C_6
REMARK    4  A    between atoms: C_6  and  C_7
REMARK    5  A    between atoms: C_6  and  N_15
REMARK    6  A    between atoms: C_7  and  C_8
REMARK    7  A    between atoms: C_8  and  C_9
REMARK    8  A    between atoms: N_15  and  CA_16
REMARK    9  A    between atoms: CA_16  and  C_18
REMARK   10  A    between atoms: C_21  and  C_22
REMARK                            x       y       z     vdW  Elec       q    Type
REMARK                         _______ _______ _______ _____ _____    ______ ____
ROOT
ATOM      1  CA  ALA A   1     -10.631  16.275  67.105  0.00  0.00    +0.149 C 
ATOM      2  CB  ALA A   1     -10.272  17.618  66.225  0.00  0.00    +0.029 C 
ENDROOT
BRANCH   1   3
ATOM      3  C   ALA A   1     -10.788  15.333  65.816  0.00  0.00    +0.242 C 
ATOM      4  N   UNK A   2     -11.217  14.007  65.817  0.00  0.00    -0.272 N 
ATOM      5  C   UNK A   2     -10.386  12.905  66.532  0.00  0.00    +0.076 C 
ATOM      6  C   UNK A   2     -10.766  11.678  65.417  0.00  0.00    +0.020 C 
ATOM      7  C   UNK A   2      -9.500  10.789  65.904  0.00  0.00    +0.002 C 
ATOM      8  C   UNK A   2      -9.972  10.458  67.298  0.00  0.00    +0.000 C 
ATOM      9  C   UNK A   2     -11.360  10.869  67.626  0.00  0.00    +0.002 C 
ATOM     10  C   UNK A   2      -9.963  12.566  64.350  0.00  0.00    +0.033 C 
ATOM     11  C   UNK A   2     -11.601  12.374  67.498  0.00  0.00    +0.020 C 
ATOM     12  C   UNK A   2     -11.231  13.616  64.288  0.00  0.00    +0.179 C 
ATOM     13  O   ALA A   1     -10.190  15.993  64.911  0.00  0.00    -0.273 OA
BRANCH  12  14
ATOM     14  C   UNK A   2     -12.390  12.498  64.324  0.00  0.00    +0.382 C 
ATOM     15  O   UNK A   2     -12.345  11.641  63.241  0.00  0.00    -0.244 OA
ATOM     16  O   UNK A   2     -13.439  12.666  64.867  0.00  0.00    -0.244 OA
ENDBRANCH  12  14
ENDBRANCH   1   3
BRANCH   1  17
ATOM     17  N   ALA A   1      -9.109  15.916  67.322  0.00  0.00    -0.201 NA
BRANCH  17  18
ATOM     18  C   UNK A   0      -8.958  16.489  68.788  0.00  0.00    +0.172 C 
BRANCH  18  19
ATOM     19  C   UNK A   0      -7.733  15.534  69.185  0.00  0.00    +0.333 C 
ATOM     20  O   UNK A   0      -6.604  15.825  69.300  0.00  0.00    -0.249 OA
BRANCH  19  21
ATOM     21  O   UNK A   0      -8.038  14.248  68.857  0.00  0.00    -0.448 OA
BRANCH  21  23
ATOM     22  C   UNK A   0      -6.738  12.802  67.429  0.00  0.00    +0.051 C 
ATOM     23  C   UNK A   0      -7.256  13.183  68.615  0.00  0.00    +0.209 C 
ENDBRANCH  21  23
ENDBRANCH  19  21
ENDBRANCH  18  19
BRANCH  18  24
ATOM     24  C   UNK A   0     -10.098  15.490  69.429  0.00  0.00    +0.033 C 
BRANCH  24  25
ATOM     25  C   UNK A   0     -10.997  16.256  70.270  0.00  0.00    +0.028 C 
BRANCH  25  26
ATOM     26  C   UNK A   0     -11.949  15.502  71.092  0.00  0.00    -0.022 A 
ATOM     27  C   UNK A   0     -12.363  15.864  72.347  0.00  0.00    -0.004 A 
ATOM     28  C   UNK A   0     -13.126  14.996  73.099  0.00  0.00    -0.000 A 
ATOM     29  C   UNK A   0     -13.486  13.772  72.596  0.00  0.00    -0.000 A 
ATOM     30  C   UNK A   0     -13.002  13.372  71.382  0.00  0.00    -0.000 A 
ATOM     31  C   UNK A   0     -12.239  14.222  70.633  0.00  0.00    -0.004 A 
ENDBRANCH  25  26
ENDBRANCH  24  25
ENDBRANCH  18  24
ENDBRANCH  17  18
ENDBRANCH   1  17
TORSDOF 10
ENDMDL
MODEL 4
REMARK VINA RESULT:      -6.8      1.714      2.933
REMARK  Name = 
REMARK  10 active torsions:
REMARK  status: ('A' for Active; 'I' for Inactive)
REMARK    1  A    between atoms: C_2  and  O_3
REMARK    2  A    between atoms: O_3  and  C_4
REMARK    3  A    between atoms: C_4  and  C_6
REMARK    4  A    between atoms: C_6  and  C_7
REMARK    5  A    between atoms: C_6  and  N_15
REMARK    6  A    between atoms: C_7  and  C_8
REMARK    7  A    between atoms: C_8  and  C_9
REMARK    8  A    between atoms: N_15  and  CA_16
REMARK    9  A    between atoms: CA_16  and  C_18
REMARK   10  A    between atoms: C_21  and  C_22
REMARK                            x       y       z     vdW  Elec       q    Type
REMARK                         _______ _______ _______ _____ _____    ______ ____
ROOT
ATOM      1  CA  ALA A   1      -8.351  14.472  68.392  0.00  0.00    +0.149 C 
ATOM      2  CB  ALA A   1      -7.224  13.308  68.108  0.00  0.00    +0.029 C 
ENDROOT
BRANCH   1   3
ATOM      3  C   ALA A   1      -7.397  15.672  67.922  0.00  0.00    +0.242 C 
ATOM      4  N   UNK A   2      -7.640  17.032  68.106  0.00  0.00    -0.272 N 
ATOM      5  C   UNK A   2      -8.857  17.720  67.425  0.00  0.00    +0.076 C 
ATOM      6  C   UNK A   2      -8.073  19.209  67.177  0.00  0.00    +0.020 C 
ATOM      7  C   UNK A   2      -9.155  19.636  66.048  0.00  0.00    +0.002 C 
ATOM      8  C   UNK A   2     -10.370  19.772  66.931  0.00  0.00    +0.000 C 
ATOM      9  C   UNK A   2     -10.125  19.656  68.391  0.00  0.00    +0.002 C 
ATOM     10  C   UNK A   2      -7.099  18.395  66.196  0.00  0.00    +0.033 C 
ATOM     11  C   UNK A   2      -9.510  18.318  68.806  0.00  0.00    +0.020 C 
ATOM     12  C   UNK A   2      -6.357  17.727  67.506  0.00  0.00    +0.179 C 
ATOM     13  O   ALA A   1      -6.573  15.091  67.152  0.00  0.00    -0.273 OA
BRANCH  12  14
ATOM     14  C   UNK A   2      -6.349  19.062  68.407  0.00  0.00    +0.382 C 
ATOM     15  O   UNK A   2      -5.583  20.076  67.860  0.00  0.00    -0.244 OA
ATOM     16  O   UNK A   2      -6.507  19.051  69.589  0.00  0.00    -0.244 OA
ENDBRANCH  12  14
ENDBRANCH   1   3
BRANCH   1  17
ATOM     17  N   ALA A   1      -9.011  14.288  66.969  0.00  0.00    -0.201 NA
BRANCH  17  18
ATOM     18  C   UNK A   0     -10.224  13.374  67.409  0.00  0.00    +0.172 C 
BRANCH  18  19
ATOM     19  C   UNK A   0     -11.201  13.864  66.236  0.00  0.00    +0.333 C 
ATOM     20  O   UNK A   0     -11.541  14.959  65.996  0.00  0.00    -0.249 OA
BRANCH  19  21
ATOM     21  O   UNK A   0     -12.020  12.839  65.872  0.00  0.00    -0.448 OA
BRANCH  21  23
ATOM     22  C   UNK A   0     -11.900  12.463  63.492  0.00  0.00    +0.051 C 
ATOM     23  C   UNK A   0     -12.537  12.494  64.682  0.00  0.00    +0.209 C 
ENDBRANCH  21  23
ENDBRANCH  19  21
ENDBRANCH  18  19
BRANCH  18  24
ATOM     24  C   UNK A   0     -10.805  14.457  68.504  0.00  0.00    +0.033 C 
BRANCH  24  25
ATOM     25  C   UNK A   0     -11.839  13.831  69.304  0.00  0.00    +0.028 C 
BRANCH  25  26
ATOM     26  C   UNK A   0     -12.209  14.496  70.558  0.00  0.00    -0.022 A 
ATOM     27  C   UNK A   0     -11.694  15.686  70.999  0.00  0.00    -0.004 A 
ATOM     28  C   UNK A   0     -11.981  16.134  72.272  0.00  0.00    -0.000 A 
ATOM     29  C   UNK A   0     -12.792  15.401  73.100  0.00  0.00    -0.000 A 
ATOM     30  C   UNK A   0     -13.236  14.173  72.697  0.00  0.00    -0.000 A 
ATOM     31  C   UNK A   0     -12.949  13.717  71.442  0.00  0.00    -0.004 A 
ENDBRANCH  25  26
ENDBRANCH  24  25
ENDBRANCH  18  24
ENDBRANCH  17  18
ENDBRANCH   1  17
TORSDOF 10
ENDMDL
MODEL 5
REMARK VINA RESULT:      -6.7      1.332      1.854
REMARK  Name = 
REMARK  10 active torsions:
REMARK  status: ('A' for Active; 'I' for Inactive)
REMARK    1  A    between atoms: C_2  and  O_3
REMARK    2  A    between atoms: O_3  and  C_4
REMARK    3  A    between atoms: C_4  and  C_6
REMARK    4  A    between atoms: C_6  and  C_7
REMARK    5  A    between atoms: C_6  and  N_15
REMARK    6  A    between atoms: C_7  and  C_8
REMARK    7  A    between atoms: C_8  and  C_9
REMARK    8  A    between atoms: N_15  and  CA_16
REMARK    9  A    between atoms: CA_16  and  C_18
REMARK   10  A    between atoms: C_21  and  C_22
REMARK                            x       y       z     vdW  Elec       q    Type
REMARK                         _______ _______ _______ _____ _____    ______ ____
ROOT
ATOM      1  CA  ALA A   1      -9.520  16.241  67.876  0.00  0.00    +0.149 C 
ATOM      2  CB  ALA A   1      -8.558  15.340  66.892  0.00  0.00    +0.029 C 
ENDROOT
BRANCH   1   3
ATOM      3  C   ALA A   1      -9.160  17.625  67.151  0.00  0.00    +0.242 C 
ATOM      4  N   UNK A   2      -7.878  18.134  66.945  0.00  0.00    -0.272 N 
ATOM      5  C   UNK A   2      -6.975  18.520  68.151  0.00  0.00    +0.076 C 
ATOM      6  C   UNK A   2      -6.225  19.830  67.368  0.00  0.00    +0.020 C 
ATOM      7  C   UNK A   2      -5.751  20.457  68.786  0.00  0.00    +0.002 C 
ATOM      8  C   UNK A   2      -4.761  19.393  69.190  0.00  0.00    +0.000 C 
ATOM      9  C   UNK A   2      -4.474  18.355  68.168  0.00  0.00    +0.002 C 
ATOM     10  C   UNK A   2      -7.683  20.500  67.352  0.00  0.00    +0.033 C 
ATOM     11  C   UNK A   2      -5.708  17.568  67.727  0.00  0.00    +0.020 C 
ATOM     12  C   UNK A   2      -8.129  19.471  66.145  0.00  0.00    +0.179 C 
ATOM     13  O   ALA A   1     -10.285  18.207  67.079  0.00  0.00    -0.273 OA
BRANCH  12  14
ATOM     14  C   UNK A   2      -6.743  19.540  65.329  0.00  0.00    +0.382 C 
ATOM     15  O   UNK A   2      -6.399  20.828  64.961  0.00  0.00    -0.244 OA
ATOM     16  O   UNK A   2      -6.329  18.636  64.670  0.00  0.00    -0.244 OA
ENDBRANCH  12  14
ENDBRANCH   1   3
BRANCH   1  17
ATOM     17  N   ALA A   1     -10.801  15.980  66.990  0.00  0.00    -0.201 NA
BRANCH  17  18
ATOM     18  C   UNK A   0     -10.797  14.400  67.062  0.00  0.00    +0.172 C 
BRANCH  18  19
ATOM     19  C   UNK A   0     -11.773  14.201  65.807  0.00  0.00    +0.333 C 
ATOM     20  O   UNK A   0     -12.893  13.856  65.816  0.00  0.00    -0.249 OA
BRANCH  19  21
ATOM     21  O   UNK A   0     -11.031  13.954  64.692  0.00  0.00    -0.448 OA
BRANCH  21  23
ATOM     22  C   UNK A   0     -11.070  11.807  63.590  0.00  0.00    +0.051 C 
ATOM     23  C   UNK A   0     -10.463  12.826  64.234  0.00  0.00    +0.209 C 
ENDBRANCH  21  23
ENDBRANCH  19  21
ENDBRANCH  18  19
BRANCH  18  24
ATOM     24  C   UNK A   0     -12.013  14.324  68.169  0.00  0.00    +0.033 C 
BRANCH  24  25
ATOM     25  C   UNK A   0     -11.547  13.629  69.353  0.00  0.00    +0.028 C 
BRANCH  25  26
ATOM     26  C   UNK A   0     -12.000  14.142  70.651  0.00  0.00    -0.022 A 
ATOM     27  C   UNK A   0     -12.993  13.585  71.413  0.00  0.00    -0.004 A 
ATOM     28  C   UNK A   0     -13.458  14.245  72.531  0.00  0.00    -0.000 A 
ATOM     29  C   UNK A   0     -12.923  15.454  72.897  0.00  0.00    -0.000 A 
ATOM     30  C   UNK A   0     -11.996  16.054  72.092  0.00  0.00    -0.000 A 
ATOM     31  C   UNK A   0     -11.536  15.412  70.978  0.00  0.00    -0.004 A 
ENDBRANCH  25  26
ENDBRANCH  24  25
ENDBRANCH  18  24
ENDBRANCH  17  18
ENDBRANCH   1  17
TORSDOF 10
ENDMDL
MODEL 6
REMARK VINA RESULT:      -6.7      3.523      5.771
REMARK  Name = 
REMARK  10 active torsions:
REMARK  status: ('A' for Active; 'I' for Inactive)
REMARK    1  A    between atoms: C_2  and  O_3
REMARK    2  A    between atoms: O_3  and  C_4
REMARK    3  A    between atoms: C_4  and  C_6
REMARK    4  A    between atoms: C_6  and  C_7
REMARK    5  A    between atoms: C_6  and  N_15
REMARK    6  A    between atoms: C_7  and  C_8
REMARK    7  A    between atoms: C_8  and  C_9
REMARK    8  A    between atoms: N_15  and  CA_16
REMARK    9  A    between atoms: CA_16  and  C_18
REMARK   10  A    between atoms: C_21  and  C_22
REMARK                            x       y       z     vdW  Elec       q    Type
REMARK                         _______ _______ _______ _____ _____    ______ ____
ROOT
ATOM      1  CA  ALA A   1      -9.864  10.281  68.228  0.00  0.00    +0.149 C 
ATOM      2  CB  ALA A   1      -9.932   9.059  67.130  0.00  0.00    +0.029 C 
ENDROOT
BRANCH   1   3
ATOM      3  C   ALA A   1     -10.840  11.240  67.391  0.00  0.00    +0.242 C 
ATOM      4  N   UNK A   2     -10.483  12.441  66.780  0.00  0.00    -0.272 N 
ATOM      5  C   UNK A   2     -10.006  13.653  67.629  0.00  0.00    +0.076 C 
ATOM      6  C   UNK A   2     -10.697  14.831  66.617  0.00  0.00    +0.020 C 
ATOM      7  C   UNK A   2     -10.628  15.942  67.796  0.00  0.00    +0.002 C 
ATOM      8  C   UNK A   2      -9.130  16.083  67.895  0.00  0.00    +0.000 C 
ATOM      9  C   UNK A   2      -8.343  15.365  66.861  0.00  0.00    +0.002 C 
ATOM     10  C   UNK A   2     -12.108  14.200  67.044  0.00  0.00    +0.033 C 
ATOM     11  C   UNK A   2      -8.576  13.853  66.852  0.00  0.00    +0.020 C 
ATOM     12  C   UNK A   2     -11.811  12.907  66.066  0.00  0.00    +0.179 C 
ATOM     13  O   ALA A   1     -11.990  10.778  67.664  0.00  0.00    -0.273 OA
BRANCH  12  14
ATOM     14  C   UNK A   2     -11.164  13.746  64.853  0.00  0.00    +0.382 C 
ATOM     15  O   UNK A   2     -12.048  14.649  64.292  0.00  0.00    -0.244 OA
ATOM     16  O   UNK A   2     -10.277  13.329  64.174  0.00  0.00    -0.244 OA
ENDBRANCH  12  14
ENDBRANCH   1   3
BRANCH   1  17
ATOM     17  N   ALA A   1     -11.029   9.667  69.099  0.00  0.00    -0.201 NA
BRANCH  17  18
ATOM     18  C   UNK A   0     -10.404   9.945  70.525  0.00  0.00    +0.172 C 
BRANCH  18  19
ATOM     19  C   UNK A   0      -9.964   8.426  70.783  0.00  0.00    +0.333 C 
ATOM     20  O   UNK A   0      -8.891   7.963  70.692  0.00  0.00    -0.249 OA
BRANCH  19  21
ATOM     21  O   UNK A   0     -11.037   7.607  70.600  0.00  0.00    -0.448 OA
BRANCH  21  23
ATOM     22  C   UNK A   0     -11.120   6.028  68.777  0.00  0.00    +0.051 C 
ATOM     23  C   UNK A   0     -11.133   6.372  70.082  0.00  0.00    +0.209 C 
ENDBRANCH  21  23
ENDBRANCH  19  21
ENDBRANCH  18  19
BRANCH  18  24
ATOM     24  C   UNK A   0     -11.837   9.789  71.320  0.00  0.00    +0.033 C 
BRANCH  24  25
ATOM     25  C   UNK A   0     -12.808  10.705  70.754  0.00  0.00    +0.028 C 
BRANCH  25  26
ATOM     26  C   UNK A   0     -12.788  12.087  71.245  0.00  0.00    -0.022 A 
ATOM     27  C   UNK A   0     -13.554  12.567  72.274  0.00  0.00    -0.004 A 
ATOM     28  C   UNK A   0     -13.584  13.920  72.540  0.00  0.00    -0.000 A 
ATOM     29  C   UNK A   0     -12.842  14.793  71.787  0.00  0.00    -0.000 A 
ATOM     30  C   UNK A   0     -12.147  14.330  70.705  0.00  0.00    -0.000 A 
ATOM     31  C   UNK A   0     -12.117  12.993  70.429  0.00  0.00    -0.004 A 
ENDBRANCH  25  26
ENDBRANCH  24  25
ENDBRANCH  18  24
ENDBRANCH  17  18
ENDBRANCH   1  17
TORSDOF 10
ENDMDL
MODEL 7
REMARK VINA RESULT:      -6.5      1.531      2.115
REMARK  Name = 
REMARK  10 active torsions:
REMARK  status: ('A' for Active; 'I' for Inactive)
REMARK    1  A    between atoms: C_2  and  O_3
REMARK    2  A    between atoms: O_3  and  C_4
REMARK    3  A    between atoms: C_4  and  C_6
REMARK    4  A    between atoms: C_6  and  C_7
REMARK    5  A    between atoms: C_6  and  N_15
REMARK    6  A    between atoms: C_7  and  C_8
REMARK    7  A    between atoms: C_8  and  C_9
REMARK    8  A    between atoms: N_15  and  CA_16
REMARK    9  A    between atoms: CA_16  and  C_18
REMARK   10  A    between atoms: C_21  and  C_22
REMARK                            x       y       z     vdW  Elec       q    Type
REMARK                         _______ _______ _______ _____ _____    ______ ____
ROOT
ATOM      1  CA  ALA A   1      -9.663  15.956  67.578  0.00  0.00    +0.149 C 
ATOM      2  CB  ALA A   1      -8.672  14.648  67.467  0.00  0.00    +0.029 C 
ENDROOT
BRANCH   1   3
ATOM      3  C   ALA A   1      -8.725  16.888  66.670  0.00  0.00    +0.242 C 
ATOM      4  N   UNK A   2      -7.469  17.378  67.023  0.00  0.00    -0.272 N 
ATOM      5  C   UNK A   2      -7.308  18.364  68.215  0.00  0.00    +0.076 C 
ATOM      6  C   UNK A   2      -6.032  19.244  67.516  0.00  0.00    +0.020 C 
ATOM      7  C   UNK A   2      -6.295  20.494  68.515  0.00  0.00    +0.002 C 
ATOM      8  C   UNK A   2      -5.893  19.841  69.814  0.00  0.00    +0.000 C 
ATOM      9  C   UNK A   2      -5.292  18.489  69.699  0.00  0.00    +0.002 C 
ATOM     10  C   UNK A   2      -7.100  19.676  66.400  0.00  0.00    +0.033 C 
ATOM     11  C   UNK A   2      -6.210  17.462  69.035  0.00  0.00    +0.020 C 
ATOM     12  C   UNK A   2      -7.002  18.169  65.740  0.00  0.00    +0.179 C 
ATOM     13  O   ALA A   1      -9.507  17.251  65.739  0.00  0.00    -0.273 OA
BRANCH  12  14
ATOM     14  C   UNK A   2      -5.408  18.005  65.909  0.00  0.00    +0.382 C 
ATOM     15  O   UNK A   2      -4.693  18.996  65.263  0.00  0.00    -0.244 OA
ATOM     16  O   UNK A   2      -4.878  16.951  66.086  0.00  0.00    -0.244 OA
ENDBRANCH  12  14
ENDBRANCH   1   3
BRANCH   1  17
ATOM     17  N   ALA A   1     -10.556  15.480  66.366  0.00  0.00    -0.201 NA
BRANCH  17  18
ATOM     18  C   UNK A   0     -10.878  14.024  66.893  0.00  0.00    +0.172 C 
BRANCH  18  19
ATOM     19  C   UNK A   0     -11.915  13.677  65.721  0.00  0.00    +0.333 C 
ATOM     20  O   UNK A   0     -13.024  14.041  65.612  0.00  0.00    -0.249 OA
BRANCH  19  21
ATOM     21  O   UNK A   0     -11.564  12.496  65.141  0.00  0.00    -0.448 OA
BRANCH  21  23
ATOM     22  C   UNK A   0     -10.503  11.162  63.433  0.00  0.00    +0.051 C 
ATOM     23  C   UNK A   0     -11.270  12.184  63.869  0.00  0.00    +0.209 C 
ENDBRANCH  21  23
ENDBRANCH  19  21
ENDBRANCH  18  19
BRANCH  18  24
ATOM     24  C   UNK A   0     -12.047  14.527  67.938  0.00  0.00    +0.033 C 
BRANCH  24  25
ATOM     25  C   UNK A   0     -11.986  13.734  69.151  0.00  0.00    +0.028 C 
BRANCH  25  26
ATOM     26  C   UNK A   0     -12.307  14.414  70.410  0.00  0.00    -0.022 A 
ATOM     27  C   UNK A   0     -11.758  15.597  70.828  0.00  0.00    -0.004 A 
ATOM     28  C   UNK A   0     -12.000  16.059  72.105  0.00  0.00    -0.000 A 
ATOM     29  C   UNK A   0     -12.801  15.347  72.960  0.00  0.00    -0.000 A 
ATOM     30  C   UNK A   0     -13.279  14.125  72.579  0.00  0.00    -0.000 A 
ATOM     31  C   UNK A   0     -13.037  13.655  71.320  0.00  0.00    -0.004 A 
ENDBRANCH  25  26
ENDBRANCH  24  25
ENDBRANCH  18  24
ENDBRANCH  17  18
ENDBRANCH   1  17
TORSDOF 10
ENDMDL
MODEL 8
REMARK VINA RESULT:      -6.5      2.501      3.283
REMARK  Name = 
REMARK  10 active torsions:
REMARK  status: ('A' for Active; 'I' for Inactive)
REMARK    1  A    between atoms: C_2  and  O_3
REMARK    2  A    between atoms: O_3  and  C_4
REMARK    3  A    between atoms: C_4  and  C_6
REMARK    4  A    between atoms: C_6  and  C_7
REMARK    5  A    between atoms: C_6  and  N_15
REMARK    6  A    between atoms: C_7  and  C_8
REMARK    7  A    between atoms: C_8  and  C_9
REMARK    8  A    between atoms: N_15  and  CA_16
REMARK    9  A    between atoms: CA_16  and  C_18
REMARK   10  A    between atoms: C_21  and  C_22
REMARK                            x       y       z     vdW  Elec       q    Type
REMARK                         _______ _______ _______ _____ _____    ______ ____
ROOT
ATOM      1  CA  ALA A   1      -9.384  14.373  68.322  0.00  0.00    +0.149 C 
ATOM      2  CB  ALA A   1      -9.215  14.231  66.692  0.00  0.00    +0.029 C 
ENDROOT
BRANCH   1   3
ATOM      3  C   ALA A   1      -9.985  15.858  68.246  0.00  0.00    +0.242 C 
ATOM      4  N   UNK A   2      -9.493  16.902  67.465  0.00  0.00    -0.272 N 
ATOM      5  C   UNK A   2      -8.072  17.481  67.719  0.00  0.00    +0.076 C 
ATOM      6  C   UNK A   2      -8.481  19.080  67.309  0.00  0.00    +0.020 C 
ATOM      7  C   UNK A   2      -7.178  19.654  68.084  0.00  0.00    +0.002 C 
ATOM      8  C   UNK A   2      -6.106  19.092  67.184  0.00  0.00    +0.000 C 
ATOM      9  C   UNK A   2      -6.584  18.436  65.941  0.00  0.00    +0.002 C 
ATOM     10  C   UNK A   2      -9.447  19.033  68.588  0.00  0.00    +0.033 C 
ATOM     11  C   UNK A   2      -7.519  17.253  66.191  0.00  0.00    +0.020 C 
ATOM     12  C   UNK A   2     -10.499  18.086  67.744  0.00  0.00    +0.179 C 
ATOM     13  O   ALA A   1     -10.789  15.887  69.227  0.00  0.00    -0.273 OA
BRANCH  12  14
ATOM     14  C   UNK A   2     -10.360  18.870  66.344  0.00  0.00    +0.382 C 
ATOM     15  O   UNK A   2     -10.519  20.237  66.475  0.00  0.00    -0.244 OA
ATOM     16  O   UNK A   2     -10.615  18.371  65.291  0.00  0.00    -0.244 OA
ENDBRANCH  12  14
ENDBRANCH   1   3
BRANCH   1  17
ATOM     17  N   ALA A   1     -10.802  13.678  68.313  0.00  0.00    -0.201 NA
BRANCH  17  18
ATOM     18  C   UNK A   0     -10.588  12.765  67.039  0.00  0.00    +0.172 C 
BRANCH  18  19
ATOM     19  C   UNK A   0     -11.904  13.275  66.280  0.00  0.00    +0.333 C 
ATOM     20  O   UNK A   0     -12.683  14.070  66.648  0.00  0.00    -0.249 OA
BRANCH  19  21
ATOM     21  O   UNK A   0     -12.323  12.317  65.408  0.00  0.00    -0.448 OA
BRANCH  21  23
ATOM     22  C   UNK A   0     -11.080  11.484  63.515  0.00  0.00    +0.051 C 
ATOM     23  C   UNK A   0     -12.099  12.152  64.094  0.00  0.00    +0.209 C 
ENDBRANCH  21  23
ENDBRANCH  19  21
ENDBRANCH  18  19
BRANCH  18  24
ATOM     24  C   UNK A   0     -11.334  11.455  67.699  0.00  0.00    +0.033 C 
BRANCH  24  25
ATOM     25  C   UNK A   0     -11.767  11.771  69.046  0.00  0.00    +0.028 C 
BRANCH  25  26
ATOM     26  C   UNK A   0     -11.826  10.664  70.006  0.00  0.00    -0.022 A 
ATOM     27  C   UNK A   0     -12.857  10.432  70.878  0.00  0.00    -0.004 A 
ATOM     28  C   UNK A   0     -12.732   9.467  71.855  0.00  0.00    -0.000 A 
ATOM     29  C   UNK A   0     -11.585   8.723  71.954  0.00  0.00    -0.000 A 
ATOM     30  C   UNK A   0     -10.522   9.010  71.145  0.00  0.00    -0.000 A 
ATOM     31  C   UNK A   0     -10.633   9.970  70.180  0.00  0.00    -0.004 A 
ENDBRANCH  25  26
ENDBRANCH  24  25
ENDBRANCH  18  24
ENDBRANCH  17  18
ENDBRANCH   1  17
TORSDOF 10
ENDMDL
MODEL 9
REMARK VINA RESULT:      -6.4      3.970      5.777
REMARK  Name = 
REMARK  10 active torsions:
REMARK  status: ('A' for Active; 'I' for Inactive)
REMARK    1  A    between atoms: C_2  and  O_3
REMARK    2  A    between atoms: O_3  and  C_4
REMARK    3  A    between atoms: C_4  and  C_6
REMARK    4  A    between atoms: C_6  and  C_7
REMARK    5  A    between atoms: C_6  and  N_15
REMARK    6  A    between atoms: C_7  and  C_8
REMARK    7  A    between atoms: C_8  and  C_9
REMARK    8  A    between atoms: N_15  and  CA_16
REMARK    9  A    between atoms: CA_16  and  C_18
REMARK   10  A    between atoms: C_21  and  C_22
REMARK                            x       y       z     vdW  Elec       q    Type
REMARK                         _______ _______ _______ _____ _____    ______ ____
ROOT
ATOM      1  CA  ALA A   1      -8.990  11.029  65.491  0.00  0.00    +0.149 C 
ATOM      2  CB  ALA A   1      -9.137  10.313  64.017  0.00  0.00    +0.029 C 
ENDROOT
BRANCH   1   3
ATOM      3  C   ALA A   1      -9.971  12.244  65.126  0.00  0.00    +0.242 C 
ATOM      4  N   UNK A   2      -9.994  13.492  65.745  0.00  0.00    -0.272 N 
ATOM      5  C   UNK A   2     -10.373  13.626  67.247  0.00  0.00    +0.076 C 
ATOM      6  C   UNK A   2     -11.151  15.128  67.076  0.00  0.00    +0.020 C 
ATOM      7  C   UNK A   2     -11.936  14.927  68.481  0.00  0.00    +0.002 C 
ATOM      8  C   UNK A   2     -10.755  14.999  69.418  0.00  0.00    +0.000 C 
ATOM      9  C   UNK A   2      -9.459  15.372  68.797  0.00  0.00    +0.002 C 
ATOM     10  C   UNK A   2     -12.209  14.341  66.163  0.00  0.00    +0.033 C 
ATOM     11  C   UNK A   2      -9.005  14.410  67.699  0.00  0.00    +0.020 C 
ATOM     12  C   UNK A   2     -11.100  14.286  64.946  0.00  0.00    +0.179 C 
ATOM     13  O   ALA A   1     -10.832  11.694  64.373  0.00  0.00    -0.273 OA
BRANCH  12  14
ATOM     14  C   UNK A   2     -10.535  15.780  65.152  0.00  0.00    +0.382 C 
ATOM     15  O   UNK A   2     -11.324  16.742  64.547  0.00  0.00    -0.244 OA
ATOM     16  O   UNK A   2      -9.379  16.022  65.318  0.00  0.00    -0.244 OA
ENDBRANCH  12  14
ENDBRANCH   1   3
BRANCH   1  17
ATOM     17  N   ALA A   1     -10.137  10.144  66.120  0.00  0.00    -0.201 NA
BRANCH  17  18
ATOM     18  C   UNK A   0      -9.654  10.202  67.625  0.00  0.00    +0.172 C 
BRANCH  18  19
ATOM     19  C   UNK A   0      -9.365   8.629  67.739  0.00  0.00    +0.333 C 
ATOM     20  O   UNK A   0      -8.348   8.072  67.571  0.00  0.00    -0.249 OA
BRANCH  19  21
ATOM     21  O   UNK A   0     -10.521   7.940  67.527  0.00  0.00    -0.448 OA
BRANCH  21  23
ATOM     22  C   UNK A   0     -11.095   6.159  69.049  0.00  0.00    +0.051 C 
ATOM     23  C   UNK A   0     -10.870   6.678  67.824  0.00  0.00    +0.209 C 
ENDBRANCH  21  23
ENDBRANCH  19  21
ENDBRANCH  18  19
BRANCH  18  24
ATOM     24  C   UNK A   0     -11.174  10.087  68.246  0.00  0.00    +0.033 C 
BRANCH  24  25
ATOM     25  C   UNK A   0     -11.210  10.707  69.556  0.00  0.00    +0.028 C 
BRANCH  25  26
ATOM     26  C   UNK A   0     -11.182   9.814  70.720  0.00  0.00    -0.022 A 
ATOM     27  C   UNK A   0     -10.082   9.125  71.156  0.00  0.00    -0.004 A 
ATOM     28  C   UNK A   0     -10.209   8.182  72.154  0.00  0.00    -0.000 A 
ATOM     29  C   UNK A   0     -11.431   7.934  72.725  0.00  0.00    -0.000 A 
ATOM     30  C   UNK A   0     -12.545   8.555  72.233  0.00  0.00    -0.000 A 
ATOM     31  C   UNK A   0     -12.430   9.484  71.239  0.00  0.00    -0.004 A 
ENDBRANCH  25  26
ENDBRANCH  24  25
ENDBRANCH  18  24
ENDBRANCH  17  18
ENDBRANCH   1  17
TORSDOF 10
ENDMDL
